
  CDD

  0  0  0  0  0  0            999 V2000
M  END
> <Molecule Name>
CVD-0012807

> <SMILES>
OC(Cc1cccc(Cl)c1)Cn1cncn1

$$$$

  CDD

  0  0  0  0  0  0            999 V2000
M  END
> <Molecule Name>
CVD-0012806

> <SMILES>
Cc1cc2OCC(C(=O)N3CCCCC3c3cn[nH]c3)c2cc1C

$$$$

  CDD

  0  0  0  0  0  0            999 V2000
M  END
> <Molecule Name>
CVD-0012805

> <SMILES>
COc1cccc(Oc2cc(Cl)cc(NC(=O)Cc3cncc4ccccc34)c2)n1

$$$$

  CDD

  0  0  0  0  0  0            999 V2000
M  END
> <Molecule Name>
CVD-0012804

> <SMILES>
Clc1cccc(c1)C1CNC(=O)N(C1=O)c1cncc2ccccc12

$$$$

  CDD

  0  0  0  0  0  0            999 V2000
M  END
> <Molecule Name>
CVD-0012803

> <SMILES>
Clc1cccc(c1)C1NC(=O)N(C1=O)c1cncc2ccccc12

$$$$

  CDD

  0  0  0  0  0  0            999 V2000
M  END
> <Molecule Name>
CVD-0012802

> <SMILES>
Clc1ccc2OCC(=O)C(C(=O)Nc3cncc4ccccc34)c2c1

$$$$

  CDD

  0  0  0  0  0  0            999 V2000
M  END
> <Molecule Name>
CVD-0012801

> <SMILES>
Clc1ccc2OCCC(C(=O)Nc3cncc4ccccc34)c2c1

$$$$

  CDD

  0  0  0  0  0  0            999 V2000
M  END
> <Molecule Name>
CVD-0012800

> <SMILES>
CC1(C(=O)Nc2cncc3ccccc23)C(=O)COc2ccc(Cl)cc12

$$$$

  CDD

  0  0  0  0  0  0            999 V2000
M  END
> <Molecule Name>
CVD-0012799

> <SMILES>
Clc1cccc(c1)N1CCC(=O)N(C1=O)c1cncc2ccccc12

$$$$

  CDD

  0  0  0  0  0  0            999 V2000
M  END
> <Molecule Name>
CVD-0012798

> <SMILES>
Clc1cccc(c1)C1N(CC2CCCCC2)C(=O)N(C1=O)c1cncc2ccccc12

$$$$

  CDD

  0  0  0  0  0  0            999 V2000
M  END
> <Molecule Name>
CVD-0012797

> <SMILES>
Clc1cccc(c1)C1NC(=O)N(C1=O)c1cccc2[nH]ncc12

$$$$

  CDD

  0  0  0  0  0  0            999 V2000
M  END
> <Molecule Name>
CVD-0012796

> <SMILES>
Clc1cccc(c1)C1CCC(=O)N(C1=O)c1cncc2ccccc12

$$$$

  CDD

  0  0  0  0  0  0            999 V2000
M  END
> <Molecule Name>
CVD-0012795

> <SMILES>
Clc1cccc(c1)N1CC(=O)N(C1=O)c1cccc2[nH]ncc12

$$$$

  CDD

  0  0  0  0  0  0            999 V2000
M  END
> <Molecule Name>
CVD-0012794

> <SMILES>
Clc1cccc(c1)C1CC(=O)N(C1=O)c1cccc2[nH]ncc12

$$$$

  CDD

  0  0  0  0  0  0            999 V2000
M  END
> <Molecule Name>
CVD-0012793

> <SMILES>
Clc1cccc(c1)C1CC(=O)N(C2C(=O)Nc3ccccc23)C1=O

$$$$

  CDD

  0  0  0  0  0  0            999 V2000
M  END
> <Molecule Name>
CVD-0012792

> <SMILES>
Clc1cccc(c1)C1CC(=O)N(C1=O)c1cncc2ccccc12

$$$$

  CDD

  0  0  0  0  0  0            999 V2000
M  END
> <Molecule Name>
CVD-0012791

> <SMILES>
Clc1cccc(c1)C1CC(=O)C(C1=O)n1c2ccccc2[nH]c1=O

$$$$

  CDD

  0  0  0  0  0  0            999 V2000
M  END
> <Molecule Name>
CVD-0012790

> <SMILES>
Cc1ccncc1N1C(=O)CC(C1=O)c1cccc(Cl)c1

$$$$

  CDD

  0  0  0  0  0  0            999 V2000
M  END
> <Molecule Name>
CVD-0012789

> <SMILES>
Clc1cccc(c1)N1CC(=O)N(C1=O)c1cncc2ccccc12

$$$$

  CDD

  0  0  0  0  0  0            999 V2000
M  END
> <Molecule Name>
CVD-0012788

> <SMILES>
Clc1cccc(CC(=O)Cn2c3ccccc3[nH]c2=O)c1

$$$$

  CDD

  0  0  0  0  0  0            999 V2000
M  END
> <Molecule Name>
CVD-0012787

> <SMILES>
Clc1cccc(CC(=O)NC2C(=O)Nc3ccccc23)c1

$$$$

  CDD

  0  0  0  0  0  0            999 V2000
M  END
> <Molecule Name>
CVD-0012786

> <SMILES>
O=C1CCCN1c1cccc(c1)-c1noc(n1)-c1ccnc2[nH]ccc12

$$$$

  CDD

  0  0  0  0  0  0            999 V2000
M  END
> <Molecule Name>
CVD-0012785

> <SMILES>
O=C(N1CC(C1)Nc1ncnc2[nH]ccc12)c1c[nH]c(n1)-c1ccccc1

$$$$

  CDD

  0  0  0  0  0  0            999 V2000
M  END
> <Molecule Name>
CVD-0012784

> <SMILES>
Cc1nc2ccc(NC(=O)c3cc[nH]c(=O)c3)cn2n1

$$$$

  CDD

  0  0  0  0  0  0            999 V2000
M  END
> <Molecule Name>
CVD-0012783

> <SMILES>
Cc1c-2ccnc-2[nH]cc1NC(=O)c1ccc(Cc2ccccc2)cn1

$$$$

  CDD

  0  0  0  0  0  0            999 V2000
M  END
> <Molecule Name>
CVD-0012782

> <SMILES>
Cc1nn(C)c(C)c1C1CCCN1C(=O)c1c[nH]c2ncccc12

$$$$

  CDD

  0  0  0  0  0  0            999 V2000
M  END
> <Molecule Name>
CVD-0012781

> <SMILES>
Clc1ccc(cc1)N1CCC(C1)NC(=O)C1Cc2cncn2C(=O)N1

$$$$

  CDD

  0  0  0  0  0  0            999 V2000
M  END
> <Molecule Name>
CVD-0012780

> <SMILES>
CC(C(=O)Nc1ncnc2[nH]cnc12)n1cnc2n(C)c(=O)n(C)c(=O)c12

$$$$

  CDD

  0  0  0  0  0  0            999 V2000
M  END
> <Molecule Name>
CVD-0012779

> <SMILES>
Clc1ccc2ncccc2c1NC(=O)c1c[nH]c2ncncc12

$$$$

  CDD

  0  0  0  0  0  0            999 V2000
M  END
> <Molecule Name>
CVD-0012778

> <SMILES>
Cc1ccc(cc1C)C1=NOC(CNC(=O)CC2NC(=O)c3ccccc23)C1

$$$$

  CDD

  0  0  0  0  0  0            999 V2000
M  END
> <Molecule Name>
CVD-0012777

> <SMILES>
CC(CNC(=O)CC1NC(=O)c2ccccc12)NC(=O)c1ccc(C)o1

$$$$

  CDD

  0  0  0  0  0  0            999 V2000
M  END
> <Molecule Name>
CVD-0012776

> <SMILES>
CC(OC(=O)c1nc(C2CC2)n2ccccc12)C(=O)Nc1ncnc2[nH]cnc12

$$$$

  CDD

  0  0  0  0  0  0            999 V2000
M  END
> <Molecule Name>
CVD-0012775

> <SMILES>
Cc1[nH]c2ncnc(NC(=O)Cc3noc4ccccc34)c2c1C

$$$$

  CDD

  0  0  0  0  0  0            999 V2000
M  END
> <Molecule Name>
CVD-0012774

> <SMILES>
CN(CC(=O)N1CCCC1c1ccccc1)c1ncnc2[nH]cnc12

$$$$

  CDD

  0  0  0  0  0  0            999 V2000
M  END
> <Molecule Name>
CVD-0012773

> <SMILES>
C(C1CCN(CC1)c1ncnc2[nH]ccc12)c1nc(no1)C1CCCCC1

$$$$

  CDD

  0  0  0  0  0  0            999 V2000
M  END
> <Molecule Name>
CVD-0012772

> <SMILES>
CC(CNC(=O)CC1NC(=O)c2ccccc12)NC(=O)CCCC1CC1

$$$$

  CDD

  0  0  0  0  0  0            999 V2000
M  END
> <Molecule Name>
CVD-0012771

> <SMILES>
O=C(CC1NC(=O)c2ccccc12)NCc1ccc(cc1)C(=O)NC1CC1

$$$$

  CDD

  0  0  0  0  0  0            999 V2000
M  END
> <Molecule Name>
CVD-0012770

> <SMILES>
O=C(Nc1ccc2N(Cc3ccccc3)CCc2c1)c1ccc2C(=O)NC(=O)c2c1

$$$$

  CDD

  0  0  0  0  0  0            999 V2000
M  END
> <Molecule Name>
CVD-0012769

> <SMILES>
Cc1ncc(o1)-c1ccc(NC(=O)C2CCCCC(=O)N2)cc1

$$$$

  CDD

  0  0  0  0  0  0            999 V2000
M  END
> <Molecule Name>
CVD-0012768

> <SMILES>
O=C(Nc1ccc2[nH]c(nc2c1)-c1ccccn1)c1ccc2C(=O)NC(=O)c2c1

$$$$

  CDD

  0  0  0  0  0  0            999 V2000
M  END
> <Molecule Name>
CVD-0012767

> <SMILES>
O=C(Nc1ccc(cc1)-c1nc2ccccc2[nH]1)C1CCCCC(=O)N1

$$$$

  CDD

  0  0  0  0  0  0            999 V2000
M  END
> <Molecule Name>
CVD-0012766

> <SMILES>
Cc1nn(Cc2ccccc2)c2ncc(NC(=O)c3ccc4C(=O)NC(=O)c4c3)cc12

$$$$

  CDD

  0  0  0  0  0  0            999 V2000
M  END
> <Molecule Name>
CVD-0012765

> <SMILES>
Cc1ccc(NC(=O)c2cccc3ncccc23)c2cccnc12

$$$$

  CDD

  0  0  0  0  0  0            999 V2000
M  END
> <Molecule Name>
CVD-0012764

> <SMILES>
CN(C)c1ccc(cc1)N(C(=O)Cc1cncc2ccccc12)c1cccc(Cl)c1

$$$$

  CDD

  0  0  0  0  0  0            999 V2000
M  END
> <Molecule Name>
CVD-0012763

> <SMILES>
CN(C)c1ccc(cc1)N(C(=O)Nc1cncc2ccccc12)c1cccc(Cl)c1

$$$$

  CDD

  0  0  0  0  0  0            999 V2000
M  END
> <Molecule Name>
CVD-0012762

> <SMILES>
CN(C)c1ccc(cc1)C(C(=O)Nc1cncc2ccccc12)c1cccc(Cl)c1

$$$$

  CDD

  0  0  0  0  0  0            999 V2000
M  END
> <Molecule Name>
CVD-0012761

> <SMILES>
CC(=O)Nc1ccc(cc1)N(C(=O)Cc1cncc2ccccc12)c1cccc(Cl)c1

$$$$

  CDD

  0  0  0  0  0  0            999 V2000
M  END
> <Molecule Name>
CVD-0012760

> <SMILES>
CC(=O)Nc1ccc(cc1)N(C(=O)Nc1cncc2ccccc12)c1cccc(Cl)c1

$$$$

  CDD

  0  0  0  0  0  0            999 V2000
M  END
> <Molecule Name>
CVD-0012759

> <SMILES>
CC(=O)Nc1ccc(cc1)C(C(=O)Nc1cncc2ccccc12)c1cccc(Cl)c1

$$$$

  CDD

  0  0  0  0  0  0            999 V2000
M  END
> <Molecule Name>
CVD-0012758

> <SMILES>
CC(C)NC(=O)CC1(CC(=O)Nc2cccc(Cl)c2)C(=O)Nc2ccccc12

$$$$

  CDD

  0  0  0  0  0  0            999 V2000
M  END
> <Molecule Name>
CVD-0012757

> <SMILES>
CCNC(=O)CC1(CC(=O)Nc2cccc(Cl)c2)C(=O)Nc2ccccc12

$$$$

  CDD

  0  0  0  0  0  0            999 V2000
M  END
> <Molecule Name>
CVD-0012756

> <SMILES>
Clc1cccc(NC(=O)CC2(CC(=O)NC3CC3)C(=O)Nc3ccccc23)c1

$$$$

  CDD

  0  0  0  0  0  0            999 V2000
M  END
> <Molecule Name>
CVD-0012755

> <SMILES>
Clc1cccc(CC(=O)NC2C3CCCC3NC2=O)c1

$$$$

  CDD

  0  0  0  0  0  0            999 V2000
M  END
> <Molecule Name>
CVD-0012754

> <SMILES>
Clc1cccc(CC(=O)NC2C3CCCCC3NC2=O)c1

$$$$

  CDD

  0  0  0  0  0  0            999 V2000
M  END
> <Molecule Name>
CVD-0012753

> <SMILES>
C[S+]([O-])CC1(CC(=O)Nc2cccc(Cl)c2)C(=O)Nc2ccccc12

$$$$

  CDD

  0  0  0  0  0  0            999 V2000
M  END
> <Molecule Name>
CVD-0012752

> <SMILES>
NC(=O)CC1(NC(=O)Cc2cccc(Cl)c2)C(=O)Nc2ccccc12

$$$$

  CDD

  0  0  0  0  0  0            999 V2000
M  END
> <Molecule Name>
CVD-0012751

> <SMILES>
NC(=O)NC1(CC(=O)Nc2cccc(Cl)c2)C(=O)Nc2ccccc12

$$$$

  CDD

  0  0  0  0  0  0            999 V2000
M  END
> <Molecule Name>
CVD-0012750

> <SMILES>
OC(=O)c1ccc(cc1)N(Cc1ccccc1)C(=O)CCl

$$$$

  CDD

  0  0  0  0  0  0            999 V2000
M  END
> <Molecule Name>
CVD-0012749

> <SMILES>
CN(C)c1ccc(cc1)C1CC(=NN1C(=O)CCl)c1cccs1

$$$$

  CDD

  0  0  0  0  0  0            999 V2000
M  END
> <Molecule Name>
CVD-0012748

> <SMILES>
COc1cc(ccc1O)C1CC(=NN1C(=O)CCl)c1ccc(OC)c(OC)c1

$$$$

  CDD

  0  0  0  0  0  0            999 V2000
M  END
> <Molecule Name>
CVD-0012747

> <SMILES>
CC(=O)Nc1ccc(cc1)N(C(C(=O)NC1CCCCC1)c1ccccc1)C(=O)CCl

$$$$

  CDD

  0  0  0  0  0  0            999 V2000
M  END
> <Molecule Name>
CVD-0012746

> <SMILES>
Cc1ccc(cc1)C1CC(=NN1C(=O)CCl)c1ccccc1

$$$$

  CDD

  0  0  0  0  0  0            999 V2000
M  END
> <Molecule Name>
CVD-0012745

> <SMILES>
Fc1ccc(\C=C\C(=O)N[C@@H](COC(=O)c2ccccc2)C(=O)NC2CCCCC2)cc1

$$$$

  CDD

  0  0  0  0  0  0            999 V2000
M  END
> <Molecule Name>
CVD-0012744

> <SMILES>
O[C@H]1[C@H]2N(C[C@H]3O[C@@H]4CC[C@@H](C4)N3C2=O)C[C@H](C(=O)NCc2c(F)cc(F)cc2F)C1=O

$$$$

  CDD

  0  0  0  0  0  0            999 V2000
M  END
> <Molecule Name>
CVD-0012743

> <SMILES>
Oc1c2C(=O)N3C4CCC(C4)OC3Cn2cc(C(=O)NCc2c(F)cc(F)cc2F)c1=O

$$$$

  CDD

  0  0  0  0  0  0            999 V2000
M  END
> <Molecule Name>
CVD-0012742

> <SMILES>
Clc1cc(CC(=O)Nc2cncc3ccccc23)cc(Oc2cccnc2)c1

$$$$

  CDD

  0  0  0  0  0  0            999 V2000
M  END
> <Molecule Name>
CVD-0012741

> <SMILES>
Clc1cc(CC(=O)Nc2cncc3ccccc23)cc(Oc2cccc(=O)[nH]2)c1

$$$$

  CDD

  0  0  0  0  0  0            999 V2000
M  END
> <Molecule Name>
CVD-0012740

> <SMILES>
Clc1cc(CC(=O)Nc2cncc3ccccc23)cc(OC2CCC(=O)N2)c1

$$$$

  CDD

  0  0  0  0  0  0            999 V2000
M  END
> <Molecule Name>
CVD-0012739

> <SMILES>
OC(=O)c1ccc(c(c1)C(O)=O)-c1c-2cc(F)c(=O)cc-2oc2cc(O)c(F)cc12

$$$$

  CDD

  0  0  0  0  0  0            999 V2000
M  END
> <Molecule Name>
CVD-0012738

> <SMILES>
Nc1ccc(\N=N\c2ccccc2)c(N)n1

$$$$

  CDD

  0  0  0  0  0  0            999 V2000
M  END
> <Molecule Name>
CVD-0012737

> <SMILES>
Oc1cc(O)c2c(c1)oc(-c1cc(O)c(O)c(O)c1)c(O)c2=O

$$$$

  CDD

  0  0  0  0  0  0            999 V2000
M  END
> <Molecule Name>
CVD-0012736

> <SMILES>
OC(=O)c1ccc(c(Cl)c1)-c1ccc2cc(O)ccc2n1

$$$$

  CDD

  0  0  0  0  0  0            999 V2000
M  END
> <Molecule Name>
CVD-0012735

> <SMILES>
OC(=O)CCN1C(=S)S\C(=C/c2ccc(o2)-c2ccc(Cl)cc2)C1=O

$$$$

  CDD

  0  0  0  0  0  0            999 V2000
M  END
> <Molecule Name>
CVD-0012734

> <SMILES>
Oc1c(Br)cc(\C=N\NC(=O)c2cccc(Br)c2)c(O)c1Br

$$$$

  CDD

  0  0  0  0  0  0            999 V2000
M  END
> <Molecule Name>
CVD-0012733

> <SMILES>
OC1C(OC(=C)C(O)=O)C=CC=C1C(O)=O

$$$$

  CDD

  0  0  0  0  0  0            999 V2000
M  END
> <Molecule Name>
CVD-0012732

> <SMILES>
Cc1ccc2n(cnc2c1)C1OC(COP(O)(O)=O)C(O)C1O

$$$$

  CDD

  0  0  0  0  0  0            999 V2000
M  END
> <Molecule Name>
CVD-0012731

> <SMILES>
CC(Nc1ccc2-c3nc(cn3CCOc2c1)N1C(COC1=O)C(F)F)C(N)=O

$$$$

  CDD

  0  0  0  0  0  0            999 V2000
M  END
> <Molecule Name>
CVD-0012730

> <SMILES>
OC(=O)Cc1ccc2C(=O)c3cccc(O)c3C(=O)c2c1O

$$$$

  CDD

  0  0  0  0  0  0            999 V2000
M  END
> <Molecule Name>
CVD-0012729

> <SMILES>
Oc1cccc(c1O)-c1ccccc1Cl

$$$$

  CDD

  0  0  0  0  0  0            999 V2000
M  END
> <Molecule Name>
CVD-0012728

> <SMILES>
Oc1ccc(Cl)cc1Cc1cc(Cl)ccc1O

$$$$

  CDD

  0  0  0  0  0  0            999 V2000
M  END
> <Molecule Name>
CVD-0012727

> <SMILES>
CC1CCC2CC(CC(O)(O2)C2CSC(=O)N2)OC(=O)\C=C(C)/CC\C=C/C=C\1

$$$$

  CDD

  0  0  0  0  0  0            999 V2000
M  END
> <Molecule Name>
CVD-0012726

> <SMILES>
CC(C)(C)c1cc(c(NC(=O)c2c[nH]c3ccccc3c2=O)cc1O)C(C)(C)C

$$$$

  CDD

  0  0  0  0  0  0            999 V2000
M  END
> <Molecule Name>
CVD-0012725

> <SMILES>
COc1cc(N)c(OC)c(CCOC(=O)c2cc(Cl)c(O)cc2O)c1OC

$$$$

  CDD

  0  0  0  0  0  0            999 V2000
M  END
> <Molecule Name>
CVD-0012724

> <SMILES>
Oc1ccc(CCC(=O)c2c(O)cc(O)cc2O)cc1

$$$$

  CDD

  0  0  0  0  0  0            999 V2000
M  END
> <Molecule Name>
CVD-0012723

> <SMILES>
OC(=O)c1cc(O)c2C(=O)c3c(O)cccc3C(=O)c2c1

$$$$

  CDD

  0  0  0  0  0  0            999 V2000
M  END
> <Molecule Name>
CVD-0012722

> <SMILES>
CCOc1c2C(OC(=O)c2c(N)c(OCC)c1OCC)C1N(C)CCc2cc3OCOc3c(OC)c12

$$$$

  CDD

  0  0  0  0  0  0            999 V2000
M  END
> <Molecule Name>
CVD-0012721

> <SMILES>
OP(O)(=O)C(F)(F)c1ccc2ccc(cc2c1)C(F)(F)P(O)(O)=O

$$$$

  CDD

  0  0  0  0  0  0            999 V2000
M  END
> <Molecule Name>
CVD-0012720

> <SMILES>
COc1cc2OCC3Oc4c5CC(Oc5ccc4C(=O)C3c2cc1OC)C(C)=C

$$$$

  CDD

  0  0  0  0  0  0            999 V2000
M  END
> <Molecule Name>
CVD-0012719

> <SMILES>
Oc1c(Cl)cc(Cl)c(Cl)c1Cc1c(O)c(Cl)cc(Cl)c1Cl

$$$$

  CDD

  0  0  0  0  0  0            999 V2000
M  END
> <Molecule Name>
CVD-0012718

> <SMILES>
COc1ccc(C(=O)c2ccccc2O)c(O)c1

$$$$

  CDD

  0  0  0  0  0  0            999 V2000
M  END
> <Molecule Name>
CVD-0012717

> <SMILES>
OS(=O)(=O)c1ccc2cc(ccc2c1)S(O)(=O)=O

$$$$

  CDD

  0  0  0  0  0  0            999 V2000
M  END
> <Molecule Name>
CVD-0012716

> <SMILES>
Cc1ccc(NC(=O)c2cccc(c2)C(F)(F)F)cc1Nc1ncccc1-c1ccncn1

$$$$

  CDD

  0  0  0  0  0  0            999 V2000
M  END
> <Molecule Name>
CVD-0012715

> <SMILES>
CC1CC2OC2\C=C/C=C\C(=O)Cc2c(Cl)c(O)cc(O)c2C(=O)O1

$$$$

  CDD

  0  0  0  0  0  0            999 V2000
M  END
> <Molecule Name>
CVD-0012714

> <SMILES>
COc1cc2CCC(NC(C)=O)c3cc(=O)c(O)ccc3-c2c(OC)c1OC

$$$$

  CDD

  0  0  0  0  0  0            999 V2000
M  END
> <Molecule Name>
CVD-0012713

> <SMILES>
Cc1ccc(cc1Nc1cncc(c1)C(N)=O)C(=O)Nc1cccc(c1)C(F)(F)F

$$$$

  CDD

  0  0  0  0  0  0            999 V2000
M  END
> <Molecule Name>
CVD-0012712

> <SMILES>
CCCC1CC(N(C)C1)C(=O)NC(C(C)Cl)C1OC(SC)C(O)C(O)C1O

$$$$

  CDD

  0  0  0  0  0  0            999 V2000
M  END
> <Molecule Name>
CVD-0012711

> <SMILES>
CN(C)c1ccc(cc1)C(=C1C=CC(C=C1)=[N+](C)C)c1ccc(cc1)N(C)C

$$$$

  CDD

  0  0  0  0  0  0            999 V2000
M  END
> <Molecule Name>
CVD-0012710

> <SMILES>
NC(=N)c1ccc(CN2CCN(CC2=O)S(=O)(=O)c2cc3ccc(Cl)cc3s2)cc1

$$$$

  CDD

  0  0  0  0  0  0            999 V2000
M  END
> <Molecule Name>
CVD-0012709

> <SMILES>
NC(=N)c1cccc(CN2CCN(CC2=O)S(=O)(=O)c2cc3ccc(Cl)cc3s2)c1

$$$$

  CDD

  0  0  0  0  0  0            999 V2000
M  END
> <Molecule Name>
CVD-0012708

> <SMILES>
CS(=O)(=O)c1ccc(cc1)C(O)C(CF)NC(=O)C(Cl)Cl

$$$$

  CDD

  0  0  0  0  0  0            999 V2000
M  END
> <Molecule Name>
CVD-0012707

> <SMILES>
Nc1ccc(cc1)C(O)C(CO)NC(=O)C(Cl)Cl

$$$$

  CDD

  0  0  0  0  0  0            999 V2000
M  END
> <Molecule Name>
CVD-0012706

> <SMILES>
CS(=O)(=O)c1ccc(cc1)C(O)C(CO)NC(=O)C(Cl)Cl

$$$$

  CDD

  0  0  0  0  0  0            999 V2000
M  END
> <Molecule Name>
CVD-0012705

> <SMILES>
Cc1ncc(CNC(=O)N(CCCl)N=O)c(N)n1

$$$$

  CDD

  0  0  0  0  0  0            999 V2000
M  END
> <Molecule Name>
CVD-0012704

> <SMILES>
COc1ccc2[nH]cc(CCN(C)C)c2c1

$$$$

  CDD

  0  0  0  0  0  0            999 V2000
M  END
> <Molecule Name>
CVD-0012703

> <SMILES>
OC(=O)CNC(=O)Cc1c[nH]c2ccccc12

$$$$

  CDD

  0  0  0  0  0  0            999 V2000
M  END
> <Molecule Name>
CVD-0012702

> <SMILES>
COc1ccc2[nH]c(I)c(CCNC(C)=O)c2c1

$$$$

  CDD

  0  0  0  0  0  0            999 V2000
M  END
> <Molecule Name>
CVD-0012701

> <SMILES>
NC(CO)Cc1c[nH]c2ccccc12

$$$$

  CDD

  0  0  0  0  0  0            999 V2000
M  END
> <Molecule Name>
CVD-0012700

> <SMILES>
CCN(CC)C(=O)NC1CN(C)C2Cc3c[nH]c4cccc(C2=C1)c34

$$$$

  CDD

  0  0  0  0  0  0            999 V2000
M  END
> <Molecule Name>
CVD-0012699

> <SMILES>
COc1ccc2c3CCN=C(C)c3[nH]c2c1

$$$$

  CDD

  0  0  0  0  0  0            999 V2000
M  END
> <Molecule Name>
CVD-0012698

> <SMILES>
CC(Cc1ccsc1)NC(=O)NCC(Cc1ccc(O)cc1)N(C)C

$$$$

  CDD

  0  0  0  0  0  0            999 V2000
M  END
> <Molecule Name>
CVD-0012697

> <SMILES>
NC(Cc1c[nH]c2ncccc12)C(O)=O

$$$$

  CDD

  0  0  0  0  0  0            999 V2000
M  END
> <Molecule Name>
CVD-0012696

> <SMILES>
SCCC(=O)N1CCc2c(C1)[nH]c1ccccc21

$$$$

  CDD

  0  0  0  0  0  0            999 V2000
M  END
> <Molecule Name>
CVD-0012695

> <SMILES>
NC(=O)C1CCCc2c1[nH]c1ccc(Cl)cc21

$$$$

  CDD

  0  0  0  0  0  0            999 V2000
M  END
> <Molecule Name>
CVD-0012694

> <SMILES>
COc1cccc(Cc2c[nH]c3ncccc23)c1

$$$$

  CDD

  0  0  0  0  0  0            999 V2000
M  END
> <Molecule Name>
CVD-0012693

> <SMILES>
OC(=O)CC(NC(=O)Cc1c[nH]c2ccccc12)C(O)=O

$$$$

  CDD

  0  0  0  0  0  0            999 V2000
M  END
> <Molecule Name>
CVD-0012692

> <SMILES>
CCN(CC)C(=O)C1CN(C)C2Cc3c[nH]c4cccc(C2=C1)c34

$$$$

  CDD

  0  0  0  0  0  0            999 V2000
M  END
> <Molecule Name>
CVD-0012691

> <SMILES>
CC(CO)NC(=O)C1CN(C)C2Cc3c[nH]c4cccc(C2=C1)c34

$$$$

  CDD

  0  0  0  0  0  0            999 V2000
M  END
> <Molecule Name>
CVD-0012690

> <SMILES>
NS(=O)(=O)c1cc2c(NC(NS2(=O)=O)C(Cl)Cl)cc1Cl

$$$$

  CDD

  0  0  0  0  0  0            999 V2000
M  END
> <Molecule Name>
CVD-0012689

> <SMILES>
CN(C)CCc1c[nH]c2cccc(OP(O)(O)=O)c12

$$$$

  CDD

  0  0  0  0  0  0            999 V2000
M  END
> <Molecule Name>
CVD-0012688

> <SMILES>
NC(Cc1c[nH]c2ccc(O)cc12)C(O)=O

$$$$

  CDD

  0  0  0  0  0  0            999 V2000
M  END
> <Molecule Name>
CVD-0012687

> <SMILES>
OC(=O)C1=NC(SCC1)C(NC(=O)Cc1cccs1)C=O

$$$$

  CDD

  0  0  0  0  0  0            999 V2000
M  END
> <Molecule Name>
CVD-0012686

> <SMILES>
COC1OC(CNC(=O)N(CCCl)N=O)C(O)C(O)C1O

$$$$

  CDD

  0  0  0  0  0  0            999 V2000
M  END
> <Molecule Name>
CVD-0012685

> <SMILES>
OC1CCCC(O)C1NC(=O)N(CCCl)N=O

$$$$

  CDD

  0  0  0  0  0  0            999 V2000
M  END
> <Molecule Name>
CVD-0012684

> <SMILES>
Brc1ccc2NC(=O)\C(=N/NC(=S)Nc3cccc(Br)c3)c2c1

$$$$

  CDD

  0  0  0  0  0  0            999 V2000
M  END
> <Molecule Name>
CVD-0012683

> <SMILES>
Clc1ccc(OCC(=O)N\N=C2/C(=O)Nc3ccc(Br)cc23)cc1

$$$$

  CDD

  0  0  0  0  0  0            999 V2000
M  END
> <Molecule Name>
CVD-0012682

> <SMILES>
Brc1ccc(CN\N=C2/C(=O)Nc3ccc(Br)cc23)cc1

$$$$

  CDD

  0  0  0  0  0  0            999 V2000
M  END
> <Molecule Name>
CVD-0012681

> <SMILES>
Clc1ccc(CN\N=C2/C(=O)Nc3ccc(Br)cc23)cc1

$$$$

  CDD

  0  0  0  0  0  0            999 V2000
M  END
> <Molecule Name>
CVD-0012680

> <SMILES>
Oc1ccc(cc1Cl)C(=O)N\N=C1/C(=O)Nc2cc(Br)ccc12

$$$$

  CDD

  0  0  0  0  0  0            999 V2000
M  END
> <Molecule Name>
CVD-0012679

> <SMILES>
Oc1ccc(cc1Cl)C(=O)N\N=C1/C(=O)Nc2c1ccc(Cl)c2Cl

$$$$

  CDD

  0  0  0  0  0  0            999 V2000
M  END
> <Molecule Name>
CVD-0012678

> <SMILES>
Oc1ccc(Cl)cc1C(=O)N\N=C1/C(=O)Nc2cc(Br)ccc12

$$$$

  CDD

  0  0  0  0  0  0            999 V2000
M  END
> <Molecule Name>
CVD-0012677

> <SMILES>
O=C(N1C(=O)C(=O)c2ccccc12)c1cc(=O)[nH]c2ccccc12

$$$$

  CDD

  0  0  0  0  0  0            999 V2000
M  END
> <Molecule Name>
CVD-0012676

> <SMILES>
O=C1N(Cc2cc(=O)[nH]c3ccccc23)c2ccccc2C1=O

$$$$

  CDD

  0  0  0  0  0  0            999 V2000
M  END
> <Molecule Name>
CVD-0012675

> <SMILES>
Brc1ccc2C(=O)C(=O)N(C(=O)c3cc(=O)[nH]c4ccccc34)c2c1

$$$$

  CDD

  0  0  0  0  0  0            999 V2000
M  END
> <Molecule Name>
CVD-0012674

> <SMILES>
Brc1ccc2C(=O)C(=O)N(Cc3cc(=O)[nH]c4ccccc34)c2c1

$$$$

  CDD

  0  0  0  0  0  0            999 V2000
M  END
> <Molecule Name>
CVD-0012673

> <SMILES>
Clc1cccc(c1)-c1ccc2C(=O)C(=O)N(Cc3cc(=O)[nH]c4ccccc34)c2c1

$$$$

  CDD

  0  0  0  0  0  0            999 V2000
M  END
> <Molecule Name>
CVD-0012672

> <SMILES>
Clc1cccc(c1)-c1ccc2C(=O)C(=O)N(C(=O)c3cc(=O)[nH]c4ccccc34)c2c1

$$$$

  CDD

  0  0  0  0  0  0            999 V2000
M  END
> <Molecule Name>
CVD-0012671

> <SMILES>
Clc1cc(OC2CC(=O)N2)cc(c1)-c1ccc2C(=O)C(=O)N(Cc3cc(=O)[nH]c4ccccc34)c2c1

$$$$

  CDD

  0  0  0  0  0  0            999 V2000
M  END
> <Molecule Name>
CVD-0012670

> <SMILES>
Clc1cc(OC2CC(=O)N2)cc(c1)-c1ccc2C(=O)C(=O)N(C(=O)c3cc(=O)[nH]c4ccccc34)c2c1

$$$$

  CDD

  0  0  0  0  0  0            999 V2000
M  END
> <Molecule Name>
CVD-0012669

> <SMILES>
Clc1cccc(c1)-c1ccc2C(=O)C(=O)N(Cn3nnc4ccccc34)c2c1

$$$$

  CDD

  0  0  0  0  0  0            999 V2000
M  END
> <Molecule Name>
CVD-0012668

> <SMILES>
Clc1cc(OC2CC(=O)N2)cc(c1)-c1ccc2C(=O)C(=O)N(Cn3nnc4ccccc34)c2c1

$$$$

  CDD

  0  0  0  0  0  0            999 V2000
M  END
> <Molecule Name>
CVD-0012667

> <SMILES>
Clc1cccc(c1)-c1ccc2C(=O)C(=O)N(Cc3cncc4ccccc34)c2c1

$$$$

  CDD

  0  0  0  0  0  0            999 V2000
M  END
> <Molecule Name>
CVD-0012666

> <SMILES>
Clc1cc(OC2CC(=O)N2)cc(c1)-c1ccc2C(=O)C(=O)N(Cc3cncc4ccccc34)c2c1

$$$$

  CDD

  0  0  0  0  0  0            999 V2000
M  END
> <Molecule Name>
CVD-0012665

> <SMILES>
Brc1ccc2C(=O)C(=O)N(Cc3cncc4ccccc34)c2c1

$$$$

  CDD

  0  0  0  0  0  0            999 V2000
M  END
> <Molecule Name>
CVD-0012664

> <SMILES>
Brc1ccc2C(=O)C(=O)N(Cn3nnc4ccccc34)c2c1

$$$$

  CDD

  0  0  0  0  0  0            999 V2000
M  END
> <Molecule Name>
CVD-0012663

> <SMILES>
O=C1N(Cn2nnc3ccccc23)c2ccccc2C1=O

$$$$

  CDD

  0  0  0  0  0  0            999 V2000
M  END
> <Molecule Name>
CVD-0012662

> <SMILES>
Cc1ccncc1CN1C(=O)C(=O)c2ccc(cc12)-c1cc(Cl)cc(OC2CC(=O)N2)c1

$$$$

  CDD

  0  0  0  0  0  0            999 V2000
M  END
> <Molecule Name>
CVD-0012661

> <SMILES>
O=C1N(Cc2cncc3ccccc23)c2ccccc2C1=O

$$$$

  CDD

  0  0  0  0  0  0            999 V2000
M  END
> <Molecule Name>
CVD-0012660

> <SMILES>
O=C1N(Cc2cccnc2)c2ccccc2C1=O

$$$$

  CDD

  0  0  0  0  0  0            999 V2000
M  END
> <Molecule Name>
CVD-0012659

> <SMILES>
Cc1ccncc1CN1C(=O)C(=O)c2ccccc12

$$$$

  CDD

  0  0  0  0  0  0            999 V2000
M  END
> <Molecule Name>
CVD-0012658

> <SMILES>
Cc1ccncc1CN1C(=O)C(=O)c2ccc(cc12)-c1cccc(Cl)c1

$$$$

  CDD

  0  0  0  0  0  0            999 V2000
M  END
> <Molecule Name>
CVD-0012657

> <SMILES>
Cc1ccncc1CN1C(=O)C(=O)c2ccc(cc12)-c1ccccc1

$$$$

  CDD

  0  0  0  0  0  0            999 V2000
M  END
> <Molecule Name>
CVD-0012656

> <SMILES>
Cc1ccncc1CN1C(=O)C(=O)c2ccc(Br)cc12

$$$$

  CDD

  0  0  0  0  0  0            999 V2000
M  END
> <Molecule Name>
CVD-0012655

> <SMILES>
CC(C)(C)NC(=O)C(N(Cc1ccccc1Cl)C(=O)C=C)c1cncc2ccccc12

$$$$

  CDD

  0  0  0  0  0  0            999 V2000
M  END
> <Molecule Name>
CVD-0012654

> <SMILES>
CNC(=O)C(N(Cc1ccccc1Cl)C(=O)C=C)c1cccnc1

$$$$

  CDD

  0  0  0  0  0  0            999 V2000
M  END
> <Molecule Name>
CVD-0012653

> <SMILES>
CC(C)(C)NC(=O)C(N(Cc1ccccc1Cl)C(=O)C=C)c1cccnc1

$$$$

  CDD

  0  0  0  0  0  0            999 V2000
M  END
> <Molecule Name>
CVD-0012652

> <SMILES>
CNC(=O)C(N(Cc1ccccc1Cl)C(=O)C=C)c1cncc2ccccc12

$$$$

  CDD

  0  0  0  0  0  0            999 V2000
M  END
> <Molecule Name>
CVD-0012651

> <SMILES>
Cc1c(C)c(F)c(-c2cc(O)c(Cl)cc2S)c(c1F)-c1cc(O)c(Cl)cc1P

$$$$

  CDD

  0  0  0  0  0  0            999 V2000
M  END
> <Molecule Name>
CVD-0012650

> <SMILES>
COC(=O)CSc1nc(C)c(Cl)c(C)c1C#[SeH]

$$$$

  CDD

  0  0  0  0  0  0            999 V2000
M  END
> <Molecule Name>
CVD-0012649

> <SMILES>
COc1nc2-c3cc(cc(F)c3O)-c3cc(F)c(O)c(c3)-c3nc(OC)c(Cl)cc3C(=C)c2cc1Cl

$$$$

  CDD

  0  0  0  0  0  0            999 V2000
M  END
> <Molecule Name>
CVD-0012648

> <SMILES>
CC1CC2C(C3C(=C)C=C(F)C(C)=C13)C(C)=C1CC(O)CC(N)C1=C2Cl

$$$$

  CDD

  0  0  0  0  0  0            999 V2000
M  END
> <Molecule Name>
CVD-0012647

> <SMILES>
NC(CC(=O)c1nc(O)sc1CCl)C(O)=O

$$$$

  CDD

  0  0  0  0  0  0            999 V2000
M  END
> <Molecule Name>
CVD-0012646

> <SMILES>
Oc1nc(CCNC(=O)c2cc(O)ccc2O)c(CCl)s1

$$$$

  CDD

  0  0  0  0  0  0            999 V2000
M  END
> <Molecule Name>
CVD-0012645

> <SMILES>
Oc1nc(c(CCl)s1)C1(O)CCNCC1

$$$$

  CDD

  0  0  0  0  0  0            999 V2000
M  END
> <Molecule Name>
CVD-0012644

> <SMILES>
CC(=O)NC(CC(=O)c1nc(O)sc1CCl)C(O)=O

$$$$

  CDD

  0  0  0  0  0  0            999 V2000
M  END
> <Molecule Name>
CVD-0012643

> <SMILES>
CC(N)(CCCN)C(=O)c1nc(O)sc1CCl

$$$$

  CDD

  0  0  0  0  0  0            999 V2000
M  END
> <Molecule Name>
CVD-0012642

> <SMILES>
CNC(CC(=O)c1nc(O)sc1CCl)C(O)=O

$$$$

  CDD

  0  0  0  0  0  0            999 V2000
M  END
> <Molecule Name>
CVD-0012641

> <SMILES>
COCCOCC(=O)c1nc(O)sc1CCl

$$$$

  CDD

  0  0  0  0  0  0            999 V2000
M  END
> <Molecule Name>
CVD-0012640

> <SMILES>
Oc1nc(C(=O)c2cnccn2)c(CCl)s1

$$$$

  CDD

  0  0  0  0  0  0            999 V2000
M  END
> <Molecule Name>
CVD-0012639

> <SMILES>
Cc1[nH]cnc1Cc1nc(O)sc1CCl

$$$$

  CDD

  0  0  0  0  0  0            999 V2000
M  END
> <Molecule Name>
CVD-0012638

> <SMILES>
OC(=O)C1CCCC(C1)C(=O)c1nc(O)sc1CCl

$$$$

  CDD

  0  0  0  0  0  0            999 V2000
M  END
> <Molecule Name>
CVD-0012637

> <SMILES>
COCCC(=O)c1nc(O)sc1CCl

$$$$

  CDD

  0  0  0  0  0  0            999 V2000
M  END
> <Molecule Name>
CVD-0012636

> <SMILES>
Nc1ccc(cn1)C(=O)c1nc(O)sc1CCl

$$$$

  CDD

  0  0  0  0  0  0            999 V2000
M  END
> <Molecule Name>
CVD-0012635

> <SMILES>
CC1(CCOC(=O)C1)c1nc(O)sc1CCl

$$$$

  CDD

  0  0  0  0  0  0            999 V2000
M  END
> <Molecule Name>
CVD-0012634

> <SMILES>
CC(CC(O)=O)(CC(O)=O)c1nc(O)sc1CCl

$$$$

  CDD

  0  0  0  0  0  0            999 V2000
M  END
> <Molecule Name>
CVD-0012633

> <SMILES>
Oc1nc(C(=O)c2cncc(Br)c2)c(CCl)s1

$$$$

  CDD

  0  0  0  0  0  0            999 V2000
M  END
> <Molecule Name>
CVD-0012632

> <SMILES>
Cc1ccc(cn1)C(=O)c1nc(O)sc1CCl

$$$$

  CDD

  0  0  0  0  0  0            999 V2000
M  END
> <Molecule Name>
CVD-0012631

> <SMILES>
Oc1nc(C(=O)C(Cc2cccc(O)c2)C#N)c(CCl)s1

$$$$

  CDD

  0  0  0  0  0  0            999 V2000
M  END
> <Molecule Name>
CVD-0012630

> <SMILES>
OC(=O)c1ccc(cn1)C(=O)c1nc(O)sc1CCl

$$$$

  CDD

  0  0  0  0  0  0            999 V2000
M  END
> <Molecule Name>
CVD-0012629

> <SMILES>
OC(=O)c1cc(n[nH]1)C(=O)c1nc(O)sc1CCl

$$$$

  CDD

  0  0  0  0  0  0            999 V2000
M  END
> <Molecule Name>
CVD-0012628

> <SMILES>
Oc1nc(C(=O)c2ccc(Cl)nc2)c(CCl)s1

$$$$

  CDD

  0  0  0  0  0  0            999 V2000
M  END
> <Molecule Name>
CVD-0012627

> <SMILES>
NC(CSCC(N)C(=O)c1nc(O)sc1CCl)C(O)=O

$$$$

  CDD

  0  0  0  0  0  0            999 V2000
M  END
> <Molecule Name>
CVD-0012626

> <SMILES>
CC(C)OC(=O)CCC(=O)c1nc(O)sc1CCl

$$$$

  CDD

  0  0  0  0  0  0            999 V2000
M  END
> <Molecule Name>
CVD-0012625

> <SMILES>
OC(C(O)C(=O)c1nc(O)sc1CCl)C(O)=O

$$$$

  CDD

  0  0  0  0  0  0            999 V2000
M  END
> <Molecule Name>
CVD-0012624

> <SMILES>
NC(=O)CCC(=O)c1nc(O)sc1CCl

$$$$

  CDD

  0  0  0  0  0  0            999 V2000
M  END
> <Molecule Name>
CVD-0012623

> <SMILES>
Oc1nc(C(=O)CCc2cccc(O)c2)c(CCl)s1

$$$$

  CDD

  0  0  0  0  0  0            999 V2000
M  END
> <Molecule Name>
CVD-0012622

> <SMILES>
CC(=O)CCC(=O)c1nc(O)sc1CCl

$$$$

  CDD

  0  0  0  0  0  0            999 V2000
M  END
> <Molecule Name>
CVD-0012621

> <SMILES>
NC(CC(C(O)=O)C(=O)c1nc(O)sc1CCl)C(O)=O

$$$$

  CDD

  0  0  0  0  0  0            999 V2000
M  END
> <Molecule Name>
CVD-0012620

> <SMILES>
OC(=O)c1cc(=O)cc(o1)C(=O)c1nc(O)sc1CCl

$$$$

  CDD

  0  0  0  0  0  0            999 V2000
M  END
> <Molecule Name>
CVD-0012619

> <SMILES>
OC(=O)CCC(=O)c1nc(O)sc1CCl

$$$$

  CDD

  0  0  0  0  0  0            999 V2000
M  END
> <Molecule Name>
CVD-0012618

> <SMILES>
OC(=O)C(Br)C(Br)C(=O)c1nc(O)sc1CCl

$$$$

  CDD

  0  0  0  0  0  0            999 V2000
M  END
> <Molecule Name>
CVD-0012617

> <SMILES>
Cc1cnc(cn1)C(=O)c1nc(O)sc1CCl

$$$$

  CDD

  0  0  0  0  0  0            999 V2000
M  END
> <Molecule Name>
CVD-0012616

> <SMILES>
COc1cc(OC)cc(c1)C(=O)c1nc(O)sc1CCl

$$$$

  CDD

  0  0  0  0  0  0            999 V2000
M  END
> <Molecule Name>
CVD-0012615

> <SMILES>
NCC(=O)CCC(=O)c1nc(O)sc1CCl

$$$$

  CDD

  0  0  0  0  0  0            999 V2000
M  END
> <Molecule Name>
CVD-0012614

> <SMILES>
Cc1nc(C)c(cc1C(O)=O)C(=O)c1nc(O)sc1CCl

$$$$

  CDD

  0  0  0  0  0  0            999 V2000
M  END
> <Molecule Name>
CVD-0012613

> <SMILES>
NCC(=O)NC(CCC(=O)c1nc(O)sc1CCl)C(O)=O

$$$$

  CDD

  0  0  0  0  0  0            999 V2000
M  END
> <Molecule Name>
CVD-0012612

> <SMILES>
OC(=O)CCC(=O)C(=O)c1nc(O)sc1CCl

$$$$

  CDD

  0  0  0  0  0  0            999 V2000
M  END
> <Molecule Name>
CVD-0012611

> <SMILES>
COC(=O)CCC(=O)c1nc(O)sc1CCl

$$$$

  CDD

  0  0  0  0  0  0            999 V2000
M  END
> <Molecule Name>
CVD-0012610

> <SMILES>
OC(=O)CC(CC(=O)c1nc(O)sc1CCl)C(O)=O

$$$$

  CDD

  0  0  0  0  0  0            999 V2000
M  END
> <Molecule Name>
CVD-0012609

> <SMILES>
NC(CCC(=O)Nc1cccc2ccccc12)C(=O)c1nc(O)sc1CCl

$$$$

  CDD

  0  0  0  0  0  0            999 V2000
M  END
> <Molecule Name>
CVD-0012608

> <SMILES>
OC(C1OC(=O)C(O)C1c1nc(O)sc1CCl)C(O)=O

$$$$

  CDD

  0  0  0  0  0  0            999 V2000
M  END
> <Molecule Name>
CVD-0012607

> <SMILES>
Oc1nc(C(=O)CS(O)(=O)=O)c(CCl)s1

$$$$

  CDD

  0  0  0  0  0  0            999 V2000
M  END
> <Molecule Name>
CVD-0012606

> <SMILES>
OC(=O)CSCC(=O)c1nc(O)sc1CCl

$$$$

  CDD

  0  0  0  0  0  0            999 V2000
M  END
> <Molecule Name>
CVD-0012605

> <SMILES>
NC(=O)NC(NC(N)=O)C(=O)c1nc(O)sc1CCl

$$$$

  CDD

  0  0  0  0  0  0            999 V2000
M  END
> <Molecule Name>
CVD-0012604

> <SMILES>
COCCCOCCCc1nc(O)sc1CCl

$$$$

  CDD

  0  0  0  0  0  0            999 V2000
M  END
> <Molecule Name>
CVD-0012603

> <SMILES>
OC(=O)c1cncc(c1)C(=O)c1nc(O)sc1CCl

$$$$

  CDD

  0  0  0  0  0  0            999 V2000
M  END
> <Molecule Name>
CVD-0012602

> <SMILES>
CC(=O)CC(=O)CCC(=O)c1nc(O)sc1CCl

$$$$

  CDD

  0  0  0  0  0  0            999 V2000
M  END
> <Molecule Name>
CVD-0012601

> <SMILES>
CCCCC(C(O)=O)C(=O)c1nc(O)sc1CCl

$$$$

  CDD

  0  0  0  0  0  0            999 V2000
M  END
> <Molecule Name>
CVD-0012600

> <SMILES>
CCC(C(O)=O)C(=O)c1nc(O)sc1CCl

$$$$

  CDD

  0  0  0  0  0  0            999 V2000
M  END
> <Molecule Name>
CVD-0012599

> <SMILES>
NC(CNC(N)=O)C(=O)c1nc(O)sc1CCl

$$$$

  CDD

  0  0  0  0  0  0            999 V2000
M  END
> <Molecule Name>
CVD-0012598

> <SMILES>
CC1(C)OC(C(O)CO)C(O1)C(CO)c1nc(O)sc1CCl

$$$$

  CDD

  0  0  0  0  0  0            999 V2000
M  END
> <Molecule Name>
CVD-0012597

> <SMILES>
COC(=O)CC(CC(=O)OC)c1nc(O)sc1CCl

$$$$

  CDD

  0  0  0  0  0  0            999 V2000
M  END
> <Molecule Name>
CVD-0012596

> <SMILES>
Oc1nc(C(=O)c2cnnc3ccccc23)c(CCl)s1

$$$$

  CDD

  0  0  0  0  0  0            999 V2000
M  END
> <Molecule Name>
CVD-0012595

> <SMILES>
Oc1nc(C(=O)c2cc(=O)c3ccccc3o2)c(CCl)s1

$$$$

  CDD

  0  0  0  0  0  0            999 V2000
M  END
> <Molecule Name>
CVD-0012594

> <SMILES>
CCOC(=O)CCC(=O)c1nc(O)sc1CCl

$$$$

  CDD

  0  0  0  0  0  0            999 V2000
M  END
> <Molecule Name>
CVD-0012593

> <SMILES>
OC(=O)CC(=O)c1nc(O)sc1CCl

$$$$

  CDD

  0  0  0  0  0  0            999 V2000
M  END
> <Molecule Name>
CVD-0012592

> <SMILES>
Oc1nc(C(=O)CCc2c[nH]cn2)c(CCl)s1

$$$$

  CDD

  0  0  0  0  0  0            999 V2000
M  END
> <Molecule Name>
CVD-0012591

> <SMILES>
CCCCOC(=O)CCC(=O)c1nc(O)sc1CCl

$$$$

  CDD

  0  0  0  0  0  0            999 V2000
M  END
> <Molecule Name>
CVD-0012590

> <SMILES>
CC(NC(C)=O)C(=O)NC(C)C(=O)NC(C)C(=O)c1nc(O)sc1CCl

$$$$

  CDD

  0  0  0  0  0  0            999 V2000
M  END
> <Molecule Name>
CVD-0012589

> <SMILES>
Oc1nc(C(=O)c2nc(=O)[nH]c(=O)[nH]2)c(CCl)s1

$$$$

  CDD

  0  0  0  0  0  0            999 V2000
M  END
> <Molecule Name>
CVD-0012588

> <SMILES>
Oc1nc(C(=O)CCc2nc3ccccc3[nH]2)c(CCl)s1

$$$$

  CDD

  0  0  0  0  0  0            999 V2000
M  END
> <Molecule Name>
CVD-0012587

> <SMILES>
OC(=O)CC(O)(CC(=O)c1nc(O)sc1CCl)C(O)=O

$$$$

  CDD

  0  0  0  0  0  0            999 V2000
M  END
> <Molecule Name>
CVD-0012586

> <SMILES>
COc1cc(cc(OC)c1OC)C(=O)c1nc(O)sc1CCl

$$$$

  CDD

  0  0  0  0  0  0            999 V2000
M  END
> <Molecule Name>
CVD-0012585

> <SMILES>
OC(=O)CC(Cl)C(=O)c1nc(O)sc1CCl

$$$$

  CDD

  0  0  0  0  0  0            999 V2000
M  END
> <Molecule Name>
CVD-0012584

> <SMILES>
OC(=O)CC(Br)C(=O)c1nc(O)sc1CCl

$$$$

  CDD

  0  0  0  0  0  0            999 V2000
M  END
> <Molecule Name>
CVD-0012583

> <SMILES>
NC(CCC(=O)NC(CCC(=O)c1nc(O)sc1CCl)C(O)=O)C(O)=O

$$$$

  CDD

  0  0  0  0  0  0            999 V2000
M  END
> <Molecule Name>
CVD-0012582

> <SMILES>
Oc1nc(CCc2ccccn2)c(CCl)s1

$$$$

  CDD

  0  0  0  0  0  0            999 V2000
M  END
> <Molecule Name>
CVD-0012581

> <SMILES>
OC(=O)c1cccc(c1)C(=O)c1nc(O)sc1CCl

$$$$

  CDD

  0  0  0  0  0  0            999 V2000
M  END
> <Molecule Name>
CVD-0012580

> <SMILES>
Oc1nc(C(=O)CCc2ccco2)c(CCl)s1

$$$$

  CDD

  0  0  0  0  0  0            999 V2000
M  END
> <Molecule Name>
CVD-0012579

> <SMILES>
OCC(CO)(Cc1nc(O)sc1CCl)NCCS(O)(=O)=O

$$$$

  CDD

  0  0  0  0  0  0            999 V2000
M  END
> <Molecule Name>
CVD-0012578

> <SMILES>
Oc1nc(C(=O)c2cnc(Cl)c(Cl)c2)c(CCl)s1

$$$$

  CDD

  0  0  0  0  0  0            999 V2000
M  END
> <Molecule Name>
CVD-0012577

> <SMILES>
OC(=O)CC(C(=O)c1nc(O)sc1CCl)c1ccccc1

$$$$

  CDD

  0  0  0  0  0  0            999 V2000
M  END
> <Molecule Name>
CVD-0012576

> <SMILES>
OC(=O)c1cc(ccn1)C(=O)c1nc(O)sc1CCl

$$$$

  CDD

  0  0  0  0  0  0            999 V2000
M  END
> <Molecule Name>
CVD-0012575

> <SMILES>
Oc1nc(C(=O)c2cnc3ccccc3c2)c(CCl)s1

$$$$

  CDD

  0  0  0  0  0  0            999 V2000
M  END
> <Molecule Name>
CVD-0012574

> <SMILES>
CC(C(O)=O)C(=O)c1nc(O)sc1CCl

$$$$

  CDD

  0  0  0  0  0  0            999 V2000
M  END
> <Molecule Name>
CVD-0012573

> <SMILES>
NC(CSCC(=O)c1nc(O)sc1CCl)C(O)=O

$$$$

  CDD

  0  0  0  0  0  0            999 V2000
M  END
> <Molecule Name>
CVD-0012572

> <SMILES>
CC(=O)NC(CC(N)=O)C(=O)c1nc(O)sc1CCl

$$$$

  CDD

  0  0  0  0  0  0            999 V2000
M  END
> <Molecule Name>
CVD-0012571

> <SMILES>
OC1CC(O)(CC(C1O)c1nc(O)sc1CCl)C(O)=O

$$$$

  CDD

  0  0  0  0  0  0            999 V2000
M  END
> <Molecule Name>
CVD-0012570

> <SMILES>
OC(=O)c1cccc(n1)C(=O)c1nc(O)sc1CCl

$$$$

  CDD

  0  0  0  0  0  0            999 V2000
M  END
> <Molecule Name>
CVD-0012569

> <SMILES>
CC(C)(C)c1cc(cc(c1)C(=O)c1nc(O)sc1CCl)C(O)=O

$$$$

  CDD

  0  0  0  0  0  0            999 V2000
M  END
> <Molecule Name>
CVD-0012568

> <SMILES>
OC(=O)CCC(=O)CCC(=O)c1nc(O)sc1CCl

$$$$

  CDD

  0  0  0  0  0  0            999 V2000
M  END
> <Molecule Name>
CVD-0012567

> <SMILES>
OC(=O)COCC(=O)c1nc(O)sc1CCl

$$$$

  CDD

  0  0  0  0  0  0            999 V2000
M  END
> <Molecule Name>
CVD-0012566

> <SMILES>
NCc1[nH]cc(CCC(=O)c2nc(O)sc2CCl)c1CC(O)=O

$$$$

  CDD

  0  0  0  0  0  0            999 V2000
M  END
> <Molecule Name>
CVD-0012565

> <SMILES>
Oc1nc(C(=O)c2cnc3ccccc3n2)c(CCl)s1

$$$$

  CDD

  0  0  0  0  0  0            999 V2000
M  END
> <Molecule Name>
CVD-0012564

> <SMILES>
OCCNC(=O)C(=O)NCCc1nc(O)sc1CCl

$$$$

  CDD

  0  0  0  0  0  0            999 V2000
M  END
> <Molecule Name>
CVD-0012563

> <SMILES>
CCOC(=O)CC(=O)c1nc(O)sc1CCl

$$$$

  CDD

  0  0  0  0  0  0            999 V2000
M  END
> <Molecule Name>
CVD-0012562

> <SMILES>
CC(=O)NC(Cc1c[nH]cn1)C(=O)c1nc(O)sc1CCl

$$$$

  CDD

  0  0  0  0  0  0            999 V2000
M  END
> <Molecule Name>
CVD-0012561

> <SMILES>
Oc1nc(C(=O)Cc2c[nH]cn2)c(CCl)s1

$$$$

  CDD

  0  0  0  0  0  0            999 V2000
M  END
> <Molecule Name>
CVD-0012560

> <SMILES>
OC(=O)C1CC(CC(C1)C(=O)c1nc(O)sc1CCl)C(O)=O

$$$$

  CDD

  0  0  0  0  0  0            999 V2000
M  END
> <Molecule Name>
CVD-0012559

> <SMILES>
Oc1nc(C(=O)c2cccc(O)c2)c(CCl)s1

$$$$

  CDD

  0  0  0  0  0  0            999 V2000
M  END
> <Molecule Name>
CVD-0012558

> <SMILES>
OC(=O)CSC(=S)SCC(=O)c1nc(O)sc1CCl

$$$$

  CDD

  0  0  0  0  0  0            999 V2000
M  END
> <Molecule Name>
CVD-0012557

> <SMILES>
OC(=O)C(C(=O)c1nc(O)sc1CCl)c1ccccc1

$$$$

  CDD

  0  0  0  0  0  0            999 V2000
M  END
> <Molecule Name>
CVD-0012556

> <SMILES>
Oc1nc(C(=O)c2ccc3OCOc3c2)c(CCl)s1

$$$$

  CDD

  0  0  0  0  0  0            999 V2000
M  END
> <Molecule Name>
CVD-0012555

> <SMILES>
COc1cccc(c1)C(=O)c1nc(O)sc1CCl

$$$$

  CDD

  0  0  0  0  0  0            999 V2000
M  END
> <Molecule Name>
CVD-0012554

> <SMILES>
OC(=O)C(C(=O)c1nc(O)sc1CCl)c1ccsc1

$$$$

  CDD

  0  0  0  0  0  0            999 V2000
M  END
> <Molecule Name>
CVD-0012553

> <SMILES>
Oc1nc(C(=O)Cc2ccccn2)c(CCl)s1

$$$$

  CDD

  0  0  0  0  0  0            999 V2000
M  END
> <Molecule Name>
CVD-0012552

> <SMILES>
COc1ccc(OC)c(c1)C(=O)c1nc(O)sc1CCl

$$$$

  CDD

  0  0  0  0  0  0            999 V2000
M  END
> <Molecule Name>
CVD-0012551

> <SMILES>
COc1ccc(cc1OC)C(=O)c1nc(O)sc1CCl

$$$$

  CDD

  0  0  0  0  0  0            999 V2000
M  END
> <Molecule Name>
CVD-0012550

> <SMILES>
COc1cc(N)c(cc1OC)C(=O)c1nc(O)sc1CCl

$$$$

  CDD

  0  0  0  0  0  0            999 V2000
M  END
> <Molecule Name>
CVD-0012549

> <SMILES>
OC(=O)c1cc(cc(c1)S(O)(=O)=O)C(=O)c1nc(O)sc1CCl

$$$$

  CDD

  0  0  0  0  0  0            999 V2000
M  END
> <Molecule Name>
CVD-0012548

> <SMILES>
COc1cc(OC)c(cc1OC)C(=O)c1nc(O)sc1CCl

$$$$

  CDD

  0  0  0  0  0  0            999 V2000
M  END
> <Molecule Name>
CVD-0012547

> <SMILES>
OCCOCC#CCOCCOc1csc(CCl)n1

$$$$

  CDD

  0  0  0  0  0  0            999 V2000
M  END
> <Molecule Name>
CVD-0012546

> <SMILES>
OC(=O)COCC(=O)Oc1csc(CCl)n1

$$$$

  CDD

  0  0  0  0  0  0            999 V2000
M  END
> <Molecule Name>
CVD-0012545

> <SMILES>
OC1CC(=CC(Oc2csc(CCl)n2)C1O)C(O)=O

$$$$

  CDD

  0  0  0  0  0  0            999 V2000
M  END
> <Molecule Name>
CVD-0012544

> <SMILES>
OC(=O)CNCC(=O)Oc1csc(CCl)n1

$$$$

  CDD

  0  0  0  0  0  0            999 V2000
M  END
> <Molecule Name>
CVD-0012543

> <SMILES>
OCC(CO)(COc1csc(CCl)n1)NCCS(O)(=O)=O

$$$$

  CDD

  0  0  0  0  0  0            999 V2000
M  END
> <Molecule Name>
CVD-0012542

> <SMILES>
CCCCOC(=O)CCC(=O)Oc1csc(CCl)n1

$$$$

  CDD

  0  0  0  0  0  0            999 V2000
M  END
> <Molecule Name>
CVD-0012541

> <SMILES>
OCC(COc1csc(CCl)n1)OCc1ccccc1

$$$$

  CDD

  0  0  0  0  0  0            999 V2000
M  END
> <Molecule Name>
CVD-0012540

> <SMILES>
CC(N)C(Oc1csc(CCl)n1)c1ccc(O)c(O)c1

$$$$

  CDD

  0  0  0  0  0  0            999 V2000
M  END
> <Molecule Name>
CVD-0012539

> <SMILES>
CNCC(Oc1csc(CCl)n1)c1ccc(O)c(OC)c1

$$$$

  CDD

  0  0  0  0  0  0            999 V2000
M  END
> <Molecule Name>
CVD-0012538

> <SMILES>
OC(=O)CC(=O)CC(=O)Oc1csc(CCl)n1

$$$$

  CDD

  0  0  0  0  0  0            999 V2000
M  END
> <Molecule Name>
CVD-0012537

> <SMILES>
CC(C(C)C(=O)Oc1csc(CCl)n1)C(O)=O

$$$$

  CDD

  0  0  0  0  0  0            999 V2000
M  END
> <Molecule Name>
CVD-0012536

> <SMILES>
CN(CC(O)=O)CC(=O)Oc1csc(CCl)n1

$$$$

  CDD

  0  0  0  0  0  0            999 V2000
M  END
> <Molecule Name>
CVD-0012535

> <SMILES>
CNCC(Oc1csc(CCl)n1)c1ccc(O)c(O)c1

$$$$

  CDD

  0  0  0  0  0  0            999 V2000
M  END
> <Molecule Name>
CVD-0012534

> <SMILES>
OC(=O)CCSCCC(=O)Oc1csc(CCl)n1

$$$$

  CDD

  0  0  0  0  0  0            999 V2000
M  END
> <Molecule Name>
CVD-0012533

> <SMILES>
OCCCCCCCCOc1csc(CCl)n1

$$$$

  CDD

  0  0  0  0  0  0            999 V2000
M  END
> <Molecule Name>
CVD-0012532

> <SMILES>
OC(COc1csc(CCl)n1)C(O)C1OC(=O)C(O)C1O

$$$$

  CDD

  0  0  0  0  0  0            999 V2000
M  END
> <Molecule Name>
CVD-0012531

> <SMILES>
Oc1ccc(CC(=O)Oc2csc(CCl)n2)cc1Cl

$$$$

  CDD

  0  0  0  0  0  0            999 V2000
M  END
> <Molecule Name>
CVD-0012530

> <SMILES>
Cc1cc(CO)c(O)c(COc2csc(CCl)n2)c1

$$$$

  CDD

  0  0  0  0  0  0            999 V2000
M  END
> <Molecule Name>
CVD-0012529

> <SMILES>
ClCc1nc(OC(=O)CNC(=O)CCc2ccco2)cs1

$$$$

  CDD

  0  0  0  0  0  0            999 V2000
M  END
> <Molecule Name>
CVD-0012528

> <SMILES>
OCC(O)C(=O)COc1csc(CCl)n1

$$$$

  CDD

  0  0  0  0  0  0            999 V2000
M  END
> <Molecule Name>
CVD-0012527

> <SMILES>
OCCn1c(=O)n(CCO)c(=O)n(CCOc2csc(CCl)n2)c1=O

$$$$

  CDD

  0  0  0  0  0  0            999 V2000
M  END
> <Molecule Name>
CVD-0012526

> <SMILES>
CC(Oc1csc(CCl)n1)c1ccncc1

$$$$

  CDD

  0  0  0  0  0  0            999 V2000
M  END
> <Molecule Name>
CVD-0012525

> <SMILES>
NC(C(Oc1csc(CCl)n1)c1ccc(O)c(O)c1)C(O)=O

$$$$

  CDD

  0  0  0  0  0  0            999 V2000
M  END
> <Molecule Name>
CVD-0012524

> <SMILES>
OC1CC(OC1COc1csc(CCl)n1)n1cc(Cl)c(=O)[nH]c1=O

$$$$

  CDD

  0  0  0  0  0  0            999 V2000
M  END
> <Molecule Name>
CVD-0012523

> <SMILES>
NCC(=O)NC(CCC(=O)Oc1csc(CCl)n1)C(O)=O

$$$$

  CDD

  0  0  0  0  0  0            999 V2000
M  END
> <Molecule Name>
CVD-0012522

> <SMILES>
Oc1ccc2[nH]cc(CC(=O)Oc3csc(CCl)n3)c2c1

$$$$

  CDD

  0  0  0  0  0  0            999 V2000
M  END
> <Molecule Name>
CVD-0012521

> <SMILES>
Oc1cccc(CC(=O)Oc2csc(CCl)n2)c1

$$$$

  CDD

  0  0  0  0  0  0            999 V2000
M  END
> <Molecule Name>
CVD-0012520

> <SMILES>
ClCc1nc(OC(=O)CCCCC2SCC3NC(=O)NC23)cs1

$$$$

  CDD

  0  0  0  0  0  0            999 V2000
M  END
> <Molecule Name>
CVD-0012519

> <SMILES>
COC1=CC(=O)C=C(COc2csc(CCl)n2)C1=O

$$$$

  CDD

  0  0  0  0  0  0            999 V2000
M  END
> <Molecule Name>
CVD-0012518

> <SMILES>
CC1(C)OCC(O1)C(Oc1csc(CCl)n1)C(O)=O

$$$$

  CDD

  0  0  0  0  0  0            999 V2000
M  END
> <Molecule Name>
CVD-0012517

> <SMILES>
OCCSCCOc1csc(CCl)n1

$$$$

  CDD

  0  0  0  0  0  0            999 V2000
M  END
> <Molecule Name>
CVD-0012516

> <SMILES>
OC(=O)CC(C(Oc1csc(CCl)n1)C(O)=O)C(O)=O

$$$$

  CDD

  0  0  0  0  0  0            999 V2000
M  END
> <Molecule Name>
CVD-0012515

> <SMILES>
OC(=O)CC(C1CCCCC1)C(=O)Oc1csc(CCl)n1

$$$$

  CDD

  0  0  0  0  0  0            999 V2000
M  END
> <Molecule Name>
CVD-0012514

> <SMILES>
CCCCC(C(O)=O)C(=O)Oc1csc(CCl)n1

$$$$

  CDD

  0  0  0  0  0  0            999 V2000
M  END
> <Molecule Name>
CVD-0012513

> <SMILES>
ClCc1nc(OC(=O)CCc2nc3ccccc3[nH]2)cs1

$$$$

  CDD

  0  0  0  0  0  0            999 V2000
M  END
> <Molecule Name>
CVD-0012512

> <SMILES>
CC(C)NCC(Oc1csc(CCl)n1)c1ccc(O)c(O)c1

$$$$

  CDD

  0  0  0  0  0  0            999 V2000
M  END
> <Molecule Name>
CVD-0012511

> <SMILES>
ClCc1nc(OC(=O)CN2C(=O)CSC2=S)cs1

$$$$

  CDD

  0  0  0  0  0  0            999 V2000
M  END
> <Molecule Name>
CVD-0012510

> <SMILES>
ClCc1nc(OC(=O)C2Cc3ccccc3CN2)cs1

$$$$

  CDD

  0  0  0  0  0  0            999 V2000
M  END
> <Molecule Name>
CVD-0012509

> <SMILES>
NCC(Oc1csc(CCl)n1)C(O)C(O)C(O)CO

$$$$

  CDD

  0  0  0  0  0  0            999 V2000
M  END
> <Molecule Name>
CVD-0012508

> <SMILES>
OC1C(COc2csc(CCl)n2)OC(C1O)n1cc(F)c(=O)[nH]c1=O

$$$$

  CDD

  0  0  0  0  0  0            999 V2000
M  END
> <Molecule Name>
CVD-0012507

> <SMILES>
OCC(=O)C(O)C(O)C(O)COc1csc(CCl)n1

$$$$

  CDD

  0  0  0  0  0  0            999 V2000
M  END
> <Molecule Name>
CVD-0012506

> <SMILES>
CNCC(Oc1csc(CCl)n1)C(O)C(O)C(O)CO

$$$$

  CDD

  0  0  0  0  0  0            999 V2000
M  END
> <Molecule Name>
CVD-0012505

> <SMILES>
CC1(C)OC(C(O)CO)C(O1)C(CO)Oc1csc(CCl)n1

$$$$

  CDD

  0  0  0  0  0  0            999 V2000
M  END
> <Molecule Name>
CVD-0012504

> <SMILES>
CNC(C)C(Oc1csc(CCl)n1)c1ccc(O)cc1

$$$$

  CDD

  0  0  0  0  0  0            999 V2000
M  END
> <Molecule Name>
CVD-0012503

> <SMILES>
CCCC(NC(=O)C(C)N)C(=O)Oc1csc(CCl)n1

$$$$

  CDD

  0  0  0  0  0  0            999 V2000
M  END
> <Molecule Name>
CVD-0012502

> <SMILES>
OS(=O)(=O)C(Oc1csc(CCl)n1)c1cccnc1

$$$$

  CDD

  0  0  0  0  0  0            999 V2000
M  END
> <Molecule Name>
CVD-0012501

> <SMILES>
COc1cccc(CC(=O)Oc2csc(CCl)n2)c1

$$$$

  CDD

  0  0  0  0  0  0            999 V2000
M  END
> <Molecule Name>
CVD-0012500

> <SMILES>
OC(=O)CCC(=O)CC(=O)Oc1csc(CCl)n1

$$$$

  CDD

  0  0  0  0  0  0            999 V2000
M  END
> <Molecule Name>
CVD-0012499

> <SMILES>
COc1cc(CC(=O)Oc2csc(CCl)n2)ccc1O

$$$$

  CDD

  0  0  0  0  0  0            999 V2000
M  END
> <Molecule Name>
CVD-0012498

> <SMILES>
CC(=O)CC(=O)CCC(=O)Oc1csc(CCl)n1

$$$$

  CDD

  0  0  0  0  0  0            999 V2000
M  END
> <Molecule Name>
CVD-0012497

> <SMILES>
OCCCCC(O)COc1csc(CCl)n1

$$$$

  CDD

  0  0  0  0  0  0            999 V2000
M  END
> <Molecule Name>
CVD-0012496

> <SMILES>
OC1CC(O)CC(C1)Oc1csc(CCl)n1

$$$$

  CDD

  0  0  0  0  0  0            999 V2000
M  END
> <Molecule Name>
CVD-0012495

> <SMILES>
CC(=O)OCC(COC(C)=O)Oc1csc(CCl)n1

$$$$

  CDD

  0  0  0  0  0  0            999 V2000
M  END
> <Molecule Name>
CVD-0012494

> <SMILES>
Cn1cncc1CC(N)C(=O)Oc1csc(CCl)n1

$$$$

  CDD

  0  0  0  0  0  0            999 V2000
M  END
> <Molecule Name>
CVD-0012493

> <SMILES>
Oc1ccc(O)c(c1)C(=O)NCCOc1csc(CCl)n1

$$$$

  CDD

  0  0  0  0  0  0            999 V2000
M  END
> <Molecule Name>
CVD-0012492

> <SMILES>
OCCN(CCOc1csc(CCl)n1)CCS(O)(=O)=O

$$$$

  CDD

  0  0  0  0  0  0            999 V2000
M  END
> <Molecule Name>
CVD-0012491

> <SMILES>
COc1ccc(CC(=O)Oc2csc(CCl)n2)cc1OC

$$$$

  CDD

  0  0  0  0  0  0            999 V2000
M  END
> <Molecule Name>
CVD-0012490

> <SMILES>
OC(=O)CN(CC(O)=O)CC(=O)Oc1csc(CCl)n1

$$$$

  CDD

  0  0  0  0  0  0            999 V2000
M  END
> <Molecule Name>
CVD-0012489

> <SMILES>
ClCc1nc(OC(=O)Cc2ccc3OCOc3c2)cs1

$$$$

  CDD

  0  0  0  0  0  0            999 V2000
M  END
> <Molecule Name>
CVD-0012488

> <SMILES>
NC(=O)CN(CC(O)=O)CC(=O)Oc1csc(CCl)n1

$$$$

  CDD

  0  0  0  0  0  0            999 V2000
M  END
> <Molecule Name>
CVD-0012487

> <SMILES>
ClCc1nc(OC(=O)CSc2ccncc2)cs1

$$$$

  CDD

  0  0  0  0  0  0            999 V2000
M  END
> <Molecule Name>
CVD-0012486

> <SMILES>
CC(C)(COc1csc(CCl)n1)C(O)C(=O)NCCCO

$$$$

  CDD

  0  0  0  0  0  0            999 V2000
M  END
> <Molecule Name>
CVD-0012485

> <SMILES>
OC(CN1CCN(CCOc2csc(CCl)n2)CC1)CS(O)(=O)=O

$$$$

  CDD

  0  0  0  0  0  0            999 V2000
M  END
> <Molecule Name>
CVD-0012484

> <SMILES>
OC(=O)C(C(=O)Oc1csc(CCl)n1)c1ccsc1

$$$$

  CDD

  0  0  0  0  0  0            999 V2000
M  END
> <Molecule Name>
CVD-0012483

> <SMILES>
CC(N)C(=O)NC(C)C(=O)Oc1csc(CCl)n1

$$$$

  CDD

  0  0  0  0  0  0            999 V2000
M  END
> <Molecule Name>
CVD-0012482

> <SMILES>
OC(=O)C(CCN1C(=O)c2ccccc2C1=O)Oc1csc(CCl)n1

$$$$

  CDD

  0  0  0  0  0  0            999 V2000
M  END
> <Molecule Name>
CVD-0012481

> <SMILES>
NCC(CCC(N)C(O)=O)Oc1csc(CCl)n1

$$$$

  CDD

  0  0  0  0  0  0            999 V2000
M  END
> <Molecule Name>
CVD-0012480

> <SMILES>
OCCCSCCCOc1csc(CCl)n1

$$$$

  CDD

  0  0  0  0  0  0            999 V2000
M  END
> <Molecule Name>
CVD-0012479

> <SMILES>
ClCc1nc(OC2OCC=C3OC(=O)C=C23)cs1

$$$$

  CDD

  0  0  0  0  0  0            999 V2000
M  END
> <Molecule Name>
CVD-0012478

> <SMILES>
OC(=O)CNCCNCC(=O)Oc1csc(CCl)n1

$$$$

  CDD

  0  0  0  0  0  0            999 V2000
M  END
> <Molecule Name>
CVD-0012477

> <SMILES>
OC(=O)C(C(=O)Oc1csc(CCl)n1)c1ccccc1

$$$$

  CDD

  0  0  0  0  0  0            999 V2000
M  END
> <Molecule Name>
CVD-0012476

> <SMILES>
CC(=O)N1CC(CC1C(O)=O)Oc1csc(CCl)n1

$$$$

  CDD

  0  0  0  0  0  0            999 V2000
M  END
> <Molecule Name>
CVD-0012475

> <SMILES>
ClCc1nc(OC(=O)CSc2ncccn2)cs1

$$$$

  CDD

  0  0  0  0  0  0            999 V2000
M  END
> <Molecule Name>
CVD-0012474

> <SMILES>
CC(C)CC(NC(=O)Cc1c[nH]c2ccccc12)C(=O)Oc1csc(CCl)n1

$$$$

  CDD

  0  0  0  0  0  0            999 V2000
M  END
> <Molecule Name>
CVD-0012473

> <SMILES>
CC(C)C(NC(=O)Cc1c[nH]c2ccccc12)C(=O)Oc1csc(CCl)n1

$$$$

  CDD

  0  0  0  0  0  0            999 V2000
M  END
> <Molecule Name>
CVD-0012472

> <SMILES>
ClCc1nc(OCCCN2C(=O)c3ccccc3C2=O)cs1

$$$$

  CDD

  0  0  0  0  0  0            999 V2000
M  END
> <Molecule Name>
CVD-0012471

> <SMILES>
Cc1cn(C2CCC(COc3csc(CCl)n3)O2)c(=O)[nH]c1=O

$$$$

  CDD

  0  0  0  0  0  0            999 V2000
M  END
> <Molecule Name>
CVD-0012470

> <SMILES>
NC(CC(C(O)=O)C(=O)Oc1csc(CCl)n1)C(O)=O

$$$$

  CDD

  0  0  0  0  0  0            999 V2000
M  END
> <Molecule Name>
CVD-0012469

> <SMILES>
NC(CSCC(=O)Oc1csc(CCl)n1)C(O)=O

$$$$

  CDD

  0  0  0  0  0  0            999 V2000
M  END
> <Molecule Name>
CVD-0012468

> <SMILES>
CCC(C)C(NC(=O)Cc1c[nH]c2ccccc12)C(=O)Oc1csc(CCl)n1

$$$$

  CDD

  0  0  0  0  0  0            999 V2000
M  END
> <Molecule Name>
CVD-0012467

> <SMILES>
OCCNCCNCCOc1csc(CCl)n1

$$$$

  CDD

  0  0  0  0  0  0            999 V2000
M  END
> <Molecule Name>
CVD-0012466

> <SMILES>
OCCNC(=O)C(=O)NCCOc1csc(CCl)n1

$$$$

  CDD

  0  0  0  0  0  0            999 V2000
M  END
> <Molecule Name>
CVD-0012465

> <SMILES>
Fc1cn(C2CCC(COc3csc(CCl)n3)O2)c(=O)[nH]c1=O

$$$$

  CDD

  0  0  0  0  0  0            999 V2000
M  END
> <Molecule Name>
CVD-0012464

> <SMILES>
OC1C(COc2csc(CCl)n2)OC2C1Oc1nc(=N)ccn21

$$$$

  CDD

  0  0  0  0  0  0            999 V2000
M  END
> <Molecule Name>
CVD-0012463

> <SMILES>
Cc1cn(C2CC(F)C(COc3csc(CCl)n3)O2)c(=O)[nH]c1=O

$$$$

  CDD

  0  0  0  0  0  0            999 V2000
M  END
> <Molecule Name>
CVD-0012462

> <SMILES>
Nc1ccc(SCCOc2csc(CCl)n2)c(N)c1

$$$$

  CDD

  0  0  0  0  0  0            999 V2000
M  END
> <Molecule Name>
CVD-0012461

> <SMILES>
NCCOCCC(N)C(=O)Oc1csc(CCl)n1

$$$$

  CDD

  0  0  0  0  0  0            999 V2000
M  END
> <Molecule Name>
CVD-0012460

> <SMILES>
OC1CC(OC1COc1csc(CCl)n1)n1cc(F)c(=O)[nH]c1=O

$$$$

  CDD

  0  0  0  0  0  0            999 V2000
M  END
> <Molecule Name>
CVD-0012459

> <SMILES>
OCC(O)C(O)C(=O)COc1csc(CCl)n1

$$$$

  CDD

  0  0  0  0  0  0            999 V2000
M  END
> <Molecule Name>
CVD-0012458

> <SMILES>
CC(C)(COc1csc(CCl)n1)C(O)C(=O)NCCC(O)=O

$$$$

  CDD

  0  0  0  0  0  0            999 V2000
M  END
> <Molecule Name>
CVD-0012457

> <SMILES>
OS(=O)(=O)CCCN1CCN(CCOc2csc(CCl)n2)CC1

$$$$

  CDD

  0  0  0  0  0  0            999 V2000
M  END
> <Molecule Name>
CVD-0012456

> <SMILES>
OC(=O)CSCC(=O)Oc1csc(CCl)n1

$$$$

  CDD

  0  0  0  0  0  0            999 V2000
M  END
> <Molecule Name>
CVD-0012455

> <SMILES>
OCCSCCSCCOc1csc(CCl)n1

$$$$

  CDD

  0  0  0  0  0  0            999 V2000
M  END
> <Molecule Name>
CVD-0012454

> <SMILES>
OCCOCCOc1csc(CCl)n1

$$$$

  CDD

  0  0  0  0  0  0            999 V2000
M  END
> <Molecule Name>
CVD-0012453

> <SMILES>
NCCOCCOc1csc(CCl)n1

$$$$

  CDD

  0  0  0  0  0  0            999 V2000
M  END
> <Molecule Name>
CVD-0012452

> <SMILES>
ClCc1nc(OCCOCCOC=C)cs1

$$$$

  CDD

  0  0  0  0  0  0            999 V2000
M  END
> <Molecule Name>
CVD-0012451

> <SMILES>
OC(=O)CCCC(=O)C(=O)Oc1csc(CCl)n1

$$$$

  CDD

  0  0  0  0  0  0            999 V2000
M  END
> <Molecule Name>
CVD-0012450

> <SMILES>
CN(C)CCOCCOc1csc(CCl)n1

$$$$

  CDD

  0  0  0  0  0  0            999 V2000
M  END
> <Molecule Name>
CVD-0012449

> <SMILES>
CCOCCOCCOc1csc(CCl)n1

$$$$

  CDD

  0  0  0  0  0  0            999 V2000
M  END
> <Molecule Name>
CVD-0012448

> <SMILES>
NC(CSCC(N)C(=O)Oc1csc(CCl)n1)C(O)=O

$$$$

  CDD

  0  0  0  0  0  0            999 V2000
M  END
> <Molecule Name>
CVD-0012447

> <SMILES>
Oc1nc(CC(=O)NCCNc2cccc3c(cccc23)S(O)(=O)=O)c(CCl)o1

$$$$

  CDD

  0  0  0  0  0  0            999 V2000
M  END
> <Molecule Name>
CVD-0012446

> <SMILES>
OCCOCCc1nc(O)oc1CCl

$$$$

  CDD

  0  0  0  0  0  0            999 V2000
M  END
> <Molecule Name>
CVD-0012445

> <SMILES>
Oc1nc(CC(=O)c2ccc(O)c(O)c2)c(CCl)o1

$$$$

  CDD

  0  0  0  0  0  0            999 V2000
M  END
> <Molecule Name>
CVD-0012444

> <SMILES>
Oc1nc(C(=O)OCC=C)c(CCl)o1

$$$$

  CDD

  0  0  0  0  0  0            999 V2000
M  END
> <Molecule Name>
CVD-0012443

> <SMILES>
COC(=O)C(C(C)=O)c1nc(O)oc1CCl

$$$$

  CDD

  0  0  0  0  0  0            999 V2000
M  END
> <Molecule Name>
CVD-0012442

> <SMILES>
OCC(=C)c1nc(O)oc1CCl

$$$$

  CDD

  0  0  0  0  0  0            999 V2000
M  END
> <Molecule Name>
CVD-0012441

> <SMILES>
COCC(=O)c1nc(O)oc1CCl

$$$$

  CDD

  0  0  0  0  0  0            999 V2000
M  END
> <Molecule Name>
CVD-0012440

> <SMILES>
COC(CCc1nc(O)oc1CCl)OC

$$$$

  CDD

  0  0  0  0  0  0            999 V2000
M  END
> <Molecule Name>
CVD-0012439

> <SMILES>
COC(=O)C(=C)Cc1nc(O)oc1CCl

$$$$

  CDD

  0  0  0  0  0  0            999 V2000
M  END
> <Molecule Name>
CVD-0012438

> <SMILES>
CC(=O)OCCc1nc(O)oc1CCl

$$$$

  CDD

  0  0  0  0  0  0            999 V2000
M  END
> <Molecule Name>
CVD-0012437

> <SMILES>
CCOC(=O)CCCc1nc(O)oc1CCl

$$$$

  CDD

  0  0  0  0  0  0            999 V2000
M  END
> <Molecule Name>
CVD-0012436

> <SMILES>
OC(CBr)CCc1nc(O)oc1CCl

$$$$

  CDD

  0  0  0  0  0  0            999 V2000
M  END
> <Molecule Name>
CVD-0012435

> <SMILES>
CCOC(=O)C(=O)c1nc(O)oc1CCl

$$$$

  CDD

  0  0  0  0  0  0            999 V2000
M  END
> <Molecule Name>
CVD-0012434

> <SMILES>
CCCC(C(O)=O)c1nc(O)oc1CCl

$$$$

  CDD

  0  0  0  0  0  0            999 V2000
M  END
> <Molecule Name>
CVD-0012433

> <SMILES>
CCC(=O)Cc1nc(O)oc1CCl

$$$$

  CDD

  0  0  0  0  0  0            999 V2000
M  END
> <Molecule Name>
CVD-0012432

> <SMILES>
COCCOCc1nc(O)oc1CCl

$$$$

  CDD

  0  0  0  0  0  0            999 V2000
M  END
> <Molecule Name>
CVD-0012431

> <SMILES>
OC(=O)C(=O)Cc1nc(O)oc1CCl

$$$$

  CDD

  0  0  0  0  0  0            999 V2000
M  END
> <Molecule Name>
CVD-0012430

> <SMILES>
Oc1nc(CC(=O)OCc2ccccc2)c(CCl)o1

$$$$

  CDD

  0  0  0  0  0  0            999 V2000
M  END
> <Molecule Name>
CVD-0012429

> <SMILES>
OC(CBr)C(O)Cc1nc(O)oc1CCl

$$$$

  CDD

  0  0  0  0  0  0            999 V2000
M  END
> <Molecule Name>
CVD-0012428

> <SMILES>
Oc1nc(CC(=O)CCl)c(CCl)o1

$$$$

  CDD

  0  0  0  0  0  0            999 V2000
M  END
> <Molecule Name>
CVD-0012427

> <SMILES>
Oc1nc(CCC2OCCO2)c(CCl)o1

$$$$

  CDD

  0  0  0  0  0  0            999 V2000
M  END
> <Molecule Name>
CVD-0012426

> <SMILES>
OC(=O)C(=C)Cc1nc(O)oc1CCl

$$$$

  CDD

  0  0  0  0  0  0            999 V2000
M  END
> <Molecule Name>
CVD-0012425

> <SMILES>
Oc1nc(CCCCC#N)c(CCl)o1

$$$$

  CDD

  0  0  0  0  0  0            999 V2000
M  END
> <Molecule Name>
CVD-0012424

> <SMILES>
OC(=O)CCCCc1nc(O)oc1CCl

$$$$

  CDD

  0  0  0  0  0  0            999 V2000
M  END
> <Molecule Name>
CVD-0012423

> <SMILES>
CC(C)C(C(O)=O)c1nc(O)oc1CCl

$$$$

  CDD

  0  0  0  0  0  0            999 V2000
M  END
> <Molecule Name>
CVD-0012422

> <SMILES>
Oc1nc(CCOC(=O)c2ccccc2)c(CCl)o1

$$$$

  CDD

  0  0  0  0  0  0            999 V2000
M  END
> <Molecule Name>
CVD-0012421

> <SMILES>
COc1cc(OC)cc(c1)C(=O)c1nc(O)oc1CCl

$$$$

  CDD

  0  0  0  0  0  0            999 V2000
M  END
> <Molecule Name>
CVD-0012420

> <SMILES>
Oc1nc(C2COC(=O)O2)c(CCl)o1

$$$$

  CDD

  0  0  0  0  0  0            999 V2000
M  END
> <Molecule Name>
CVD-0012419

> <SMILES>
OC(=O)Cc1nc(O)oc1CCl

$$$$

  CDD

  0  0  0  0  0  0            999 V2000
M  END
> <Molecule Name>
CVD-0012418

> <SMILES>
CC1(CC1(Cl)c1nc(O)oc1CCl)C(O)=O

$$$$

  CDD

  0  0  0  0  0  0            999 V2000
M  END
> <Molecule Name>
CVD-0012417

> <SMILES>
COC(=O)C(C)(C)CC(=C)c1nc(O)oc1CCl

$$$$

  CDD

  0  0  0  0  0  0            999 V2000
M  END
> <Molecule Name>
CVD-0012416

> <SMILES>
NC(=O)CCc1nc(O)oc1CCl

$$$$

  CDD

  0  0  0  0  0  0            999 V2000
M  END
> <Molecule Name>
CVD-0012415

> <SMILES>
CC(=O)OCCCc1nc(O)oc1CCl

$$$$

  CDD

  0  0  0  0  0  0            999 V2000
M  END
> <Molecule Name>
CVD-0012414

> <SMILES>
CCC(=O)CCc1nc(O)oc1CCl

$$$$

  CDD

  0  0  0  0  0  0            999 V2000
M  END
> <Molecule Name>
CVD-0012413

> <SMILES>
NCC(Cl)CCCc1nc(O)oc1CCl

$$$$

  CDD

  0  0  0  0  0  0            999 V2000
M  END
> <Molecule Name>
CVD-0012412

> <SMILES>
CC(C(O)=O)c1nc(O)oc1CCl

$$$$

  CDD

  0  0  0  0  0  0            999 V2000
M  END
> <Molecule Name>
CVD-0012411

> <SMILES>
COC(=O)C(C(=O)OC)c1nc(O)oc1CCl

$$$$

  CDD

  0  0  0  0  0  0            999 V2000
M  END
> <Molecule Name>
CVD-0012410

> <SMILES>
COC(C)(Cc1nc(O)oc1CCl)OC

$$$$

  CDD

  0  0  0  0  0  0            999 V2000
M  END
> <Molecule Name>
CVD-0012409

> <SMILES>
CCOC(=O)C(Br)Cc1nc(O)oc1CCl

$$$$

  CDD

  0  0  0  0  0  0            999 V2000
M  END
> <Molecule Name>
CVD-0012408

> <SMILES>
CCCCCCC(C(O)=O)c1nc(O)oc1CCl

$$$$

  CDD

  0  0  0  0  0  0            999 V2000
M  END
> <Molecule Name>
CVD-0012407

> <SMILES>
Oc1nc(CC(=O)C(=O)CBr)c(CCl)o1

$$$$

  CDD

  0  0  0  0  0  0            999 V2000
M  END
> <Molecule Name>
CVD-0012406

> <SMILES>
NC(=O)Cc1nc(O)oc1CCl

$$$$

  CDD

  0  0  0  0  0  0            999 V2000
M  END
> <Molecule Name>
CVD-0012405

> <SMILES>
CCCCC(C(O)=O)c1nc(O)oc1CCl

$$$$

  CDD

  0  0  0  0  0  0            999 V2000
M  END
> <Molecule Name>
CVD-0012404

> <SMILES>
COC(=O)CCC(=O)c1nc(O)oc1CCl

$$$$

  CDD

  0  0  0  0  0  0            999 V2000
M  END
> <Molecule Name>
CVD-0012403

> <SMILES>
Cc1noc(C)c1Cc1nc(O)oc1CCl

$$$$

  CDD

  0  0  0  0  0  0            999 V2000
M  END
> <Molecule Name>
CVD-0012402

> <SMILES>
Oc1nc(CCCC(=O)c2cccs2)c(CCl)o1

$$$$

  CDD

  0  0  0  0  0  0            999 V2000
M  END
> <Molecule Name>
CVD-0012401

> <SMILES>
CC(Br)C(=O)C(=O)C(C)c1nc(O)oc1CCl

$$$$

  CDD

  0  0  0  0  0  0            999 V2000
M  END
> <Molecule Name>
CVD-0012400

> <SMILES>
OC(=O)C(F)c1nc(O)oc1CCl

$$$$

  CDD

  0  0  0  0  0  0            999 V2000
M  END
> <Molecule Name>
CVD-0012399

> <SMILES>
Oc1nc(CCCC(=O)c2ccccc2)c(CCl)o1

$$$$

  CDD

  0  0  0  0  0  0            999 V2000
M  END
> <Molecule Name>
CVD-0012398

> <SMILES>
COC(=O)Cc1nc(O)oc1CCl

$$$$

  CDD

  0  0  0  0  0  0            999 V2000
M  END
> <Molecule Name>
CVD-0012397

> <SMILES>
Oc1nc(CCC2OCCCO2)c(CCl)o1

$$$$

  CDD

  0  0  0  0  0  0            999 V2000
M  END
> <Molecule Name>
CVD-0012396

> <SMILES>
Oc1nc(CCS(O)(=O)=O)c(CCl)o1

$$$$

  CDD

  0  0  0  0  0  0            999 V2000
M  END
> <Molecule Name>
CVD-0012395

> <SMILES>
Oc1nc(C(=O)c2cccnc2)c(CCl)o1

$$$$

  CDD

  0  0  0  0  0  0            999 V2000
M  END
> <Molecule Name>
CVD-0012394

> <SMILES>
COC(=O)CCCCc1nc(O)oc1CCl

$$$$

  CDD

  0  0  0  0  0  0            999 V2000
M  END
> <Molecule Name>
CVD-0012393

> <SMILES>
OC(=O)CCc1nc(O)oc1CCl

$$$$

  CDD

  0  0  0  0  0  0            999 V2000
M  END
> <Molecule Name>
CVD-0012392

> <SMILES>
COC(=O)CCCC(=O)c1nc(O)oc1CCl

$$$$

  CDD

  0  0  0  0  0  0            999 V2000
M  END
> <Molecule Name>
CVD-0012391

> <SMILES>
CC(=O)OCC(=O)c1nc(O)oc1CCl

$$$$

  CDD

  0  0  0  0  0  0            999 V2000
M  END
> <Molecule Name>
CVD-0012390

> <SMILES>
CCOC(CCc1nc(O)oc1CCl)OCC

$$$$

  CDD

  0  0  0  0  0  0            999 V2000
M  END
> <Molecule Name>
CVD-0012389

> <SMILES>
CC(C)(C)C(=O)Cc1nc(O)oc1CCl

$$$$

  CDD

  0  0  0  0  0  0            999 V2000
M  END
> <Molecule Name>
CVD-0012388

> <SMILES>
NC(Cc1nc(O)oc1CCl)C(O)=O

$$$$

  CDD

  0  0  0  0  0  0            999 V2000
M  END
> <Molecule Name>
CVD-0012387

> <SMILES>
Oc1nc(CCOCCOCCI)c(CCl)o1

$$$$

  CDD

  0  0  0  0  0  0            999 V2000
M  END
> <Molecule Name>
CVD-0012386

> <SMILES>
CCOC(=O)CCC(=O)c1nc(O)oc1CCl

$$$$

  CDD

  0  0  0  0  0  0            999 V2000
M  END
> <Molecule Name>
CVD-0012385

> <SMILES>
OC(=O)CC(C(O)=O)c1nc(O)oc1CCl

$$$$

  CDD

  0  0  0  0  0  0            999 V2000
M  END
> <Molecule Name>
CVD-0012384

> <SMILES>
CCOC(=O)C(C(=O)OCC)c1nc(O)oc1CCl

$$$$

  CDD

  0  0  0  0  0  0            999 V2000
M  END
> <Molecule Name>
CVD-0012383

> <SMILES>
CC(=O)OCCCCCc1nc(O)oc1CCl

$$$$

  CDD

  0  0  0  0  0  0            999 V2000
M  END
> <Molecule Name>
CVD-0012382

> <SMILES>
CCOC(=O)CCCCc1nc(O)oc1CCl

$$$$

  CDD

  0  0  0  0  0  0            999 V2000
M  END
> <Molecule Name>
CVD-0012381

> <SMILES>
CCOC(=O)C(C)(C(=O)OCC)c1nc(O)oc1CCl

$$$$

  CDD

  0  0  0  0  0  0            999 V2000
M  END
> <Molecule Name>
CVD-0012380

> <SMILES>
Oc1nc(CCCC(=O)c2ccc(O)cc2)c(CCl)o1

$$$$

  CDD

  0  0  0  0  0  0            999 V2000
M  END
> <Molecule Name>
CVD-0012379

> <SMILES>
CCOC(=O)Cc1nc(O)oc1CCl

$$$$

  CDD

  0  0  0  0  0  0            999 V2000
M  END
> <Molecule Name>
CVD-0012378

> <SMILES>
Oc1nc(CCCOCc2ccccc2)c(CCl)o1

$$$$

  CDD

  0  0  0  0  0  0            999 V2000
M  END
> <Molecule Name>
CVD-0012377

> <SMILES>
COC(=O)C(Cl)Cc1nc(O)oc1CCl

$$$$

  CDD

  0  0  0  0  0  0            999 V2000
M  END
> <Molecule Name>
CVD-0012376

> <SMILES>
Oc1nc(CCOCCOCCCl)c(CCl)o1

$$$$

  CDD

  0  0  0  0  0  0            999 V2000
M  END
> <Molecule Name>
CVD-0012375

> <SMILES>
Oc1nc(Cc2nc3ccccc3[nH]2)c(CCl)o1

$$$$

  CDD

  0  0  0  0  0  0            999 V2000
M  END
> <Molecule Name>
CVD-0012374

> <SMILES>
COC(=O)CC(=O)Cc1nc(O)oc1CCl

$$$$

  CDD

  0  0  0  0  0  0            999 V2000
M  END
> <Molecule Name>
CVD-0012373

> <SMILES>
OC(=O)CCc1ccc(cc1)-c1nc(O)oc1CCl

$$$$

  CDD

  0  0  0  0  0  0            999 V2000
M  END
> <Molecule Name>
CVD-0012372

> <SMILES>
CC1(C)COC(C)(CCc2nc(O)oc2CCl)OC1

$$$$

  CDD

  0  0  0  0  0  0            999 V2000
M  END
> <Molecule Name>
CVD-0012371

> <SMILES>
Oc1nc(CCCC(=O)c2ccc(F)cc2)c(CCl)o1

$$$$

  CDD

  0  0  0  0  0  0            999 V2000
M  END
> <Molecule Name>
CVD-0012370

> <SMILES>
COC(=O)CCc1nc(O)oc1CCl

$$$$

  CDD

  0  0  0  0  0  0            999 V2000
M  END
> <Molecule Name>
CVD-0012369

> <SMILES>
OC(Cc1nc(O)oc1CCl)CS(O)(=O)=O

$$$$

  CDD

  0  0  0  0  0  0            999 V2000
M  END
> <Molecule Name>
CVD-0012368

> <SMILES>
OCCC(=C)c1nc(O)oc1CCl

$$$$

  CDD

  0  0  0  0  0  0            999 V2000
M  END
> <Molecule Name>
CVD-0012367

> <SMILES>
OC(=O)C(Br)Cc1nc(O)oc1CCl

$$$$

  CDD

  0  0  0  0  0  0            999 V2000
M  END
> <Molecule Name>
CVD-0012366

> <SMILES>
CCOC(=O)CC(=O)Cc1nc(O)oc1CCl

$$$$

  CDD

  0  0  0  0  0  0            999 V2000
M  END
> <Molecule Name>
CVD-0012365

> <SMILES>
COc1cccc(c1)C(=O)c1nc(O)oc1CCl

$$$$

  CDD

  0  0  0  0  0  0            999 V2000
M  END
> <Molecule Name>
CVD-0012364

> <SMILES>
Oc1nc(C(=O)c2ccc3OCOc3c2)c(CCl)o1

$$$$

  CDD

  0  0  0  0  0  0            999 V2000
M  END
> <Molecule Name>
CVD-0012363

> <SMILES>
Oc1nc(CC(=O)OCC=C)c(CCl)o1

$$$$

  CDD

  0  0  0  0  0  0            999 V2000
M  END
> <Molecule Name>
CVD-0012362

> <SMILES>
CCOC(=O)CCc1nc(O)oc1CCl

$$$$

  CDD

  0  0  0  0  0  0            999 V2000
M  END
> <Molecule Name>
CVD-0012361

> <SMILES>
COC(=O)CCCCCCC(=O)c1nc(O)oc1CCl

$$$$

  CDD

  0  0  0  0  0  0            999 V2000
M  END
> <Molecule Name>
CVD-0012360

> <SMILES>
Oc1nc(C(=O)c2cnc3ccccc3n2)c(CCl)o1

$$$$

  CDD

  0  0  0  0  0  0            999 V2000
M  END
> <Molecule Name>
CVD-0012359

> <SMILES>
Oc1nc(CCCOC2CCCCO2)c(CCl)o1

$$$$

  CDD

  0  0  0  0  0  0            999 V2000
M  END
> <Molecule Name>
CVD-0012358

> <SMILES>
CCCOC(=O)Cc1nc(O)oc1CCl

$$$$

  CDD

  0  0  0  0  0  0            999 V2000
M  END
> <Molecule Name>
CVD-0012357

> <SMILES>
OC(=O)C(CBr)Cc1nc(O)oc1CCl

$$$$

  CDD

  0  0  0  0  0  0            999 V2000
M  END
> <Molecule Name>
CVD-0012356

> <SMILES>
COc1ccc(cc1OC)C(=O)c1nc(O)oc1CCl

$$$$

  CDD

  0  0  0  0  0  0            999 V2000
M  END
> <Molecule Name>
CVD-0012355

> <SMILES>
COC(=O)C(C)Cc1nc(O)oc1CCl

$$$$

  CDD

  0  0  0  0  0  0            999 V2000
M  END
> <Molecule Name>
CVD-0012354

> <SMILES>
COC(CC(=O)OC)Cc1nc(O)oc1CCl

$$$$

  CDD

  0  0  0  0  0  0            999 V2000
M  END
> <Molecule Name>
CVD-0012353

> <SMILES>
CCOC(=O)CC(=O)c1nc(O)oc1CCl

$$$$

  CDD

  0  0  0  0  0  0            999 V2000
M  END
> <Molecule Name>
CVD-0012352

> <SMILES>
COC(=O)CC(=O)c1nc(O)oc1CCl

$$$$

  CDD

  0  0  0  0  0  0            999 V2000
M  END
> <Molecule Name>
CVD-0012351

> <SMILES>
CCOC(=O)CNC(=O)Cc1nc(O)oc1CCl

$$$$

  CDD

  0  0  0  0  0  0            999 V2000
M  END
> <Molecule Name>
CVD-0012350

> <SMILES>
COC(=O)C(CBr)Cc1nc(O)oc1CCl

$$$$

  CDD

  0  0  0  0  0  0            999 V2000
M  END
> <Molecule Name>
CVD-0012349

> <SMILES>
OC(=O)C(Br)C(C(O)=O)c1nc(O)oc1CCl

$$$$

  CDD

  0  0  0  0  0  0            999 V2000
M  END
> <Molecule Name>
CVD-0012348

> <SMILES>
OCCOCCOCCc1nc(O)oc1CCl

$$$$

  CDD

  0  0  0  0  0  0            999 V2000
M  END
> <Molecule Name>
CVD-0012347

> <SMILES>
ClCc1nocc1C(=O)NCC1CCCO1

$$$$

  CDD

  0  0  0  0  0  0            999 V2000
M  END
> <Molecule Name>
CVD-0012346

> <SMILES>
COC(CNC(=O)c1conc1CCl)OC

$$$$

  CDD

  0  0  0  0  0  0            999 V2000
M  END
> <Molecule Name>
CVD-0012345

> <SMILES>
ClCc1nocc1C(=O)Nc1cccc2cccnc12

$$$$

  CDD

  0  0  0  0  0  0            999 V2000
M  END
> <Molecule Name>
CVD-0012344

> <SMILES>
CCCOC(=O)CNC(=O)c1conc1CCl

$$$$

  CDD

  0  0  0  0  0  0            999 V2000
M  END
> <Molecule Name>
CVD-0012343

> <SMILES>
CCOC(=O)C(CC)NC(=O)c1conc1CCl

$$$$

  CDD

  0  0  0  0  0  0            999 V2000
M  END
> <Molecule Name>
CVD-0012342

> <SMILES>
Cc1ccc(NC(=O)c2conc2CCl)c(O)c1

$$$$

  CDD

  0  0  0  0  0  0            999 V2000
M  END
> <Molecule Name>
CVD-0012341

> <SMILES>
OC(CBr)CCNC(=O)c1conc1CCl

$$$$

  CDD

  0  0  0  0  0  0            999 V2000
M  END
> <Molecule Name>
CVD-0012340

> <SMILES>
CC(=O)c1cc(Cl)ccc1NC(=O)c1conc1CCl

$$$$

  CDD

  0  0  0  0  0  0            999 V2000
M  END
> <Molecule Name>
CVD-0012339

> <SMILES>
OS(=O)(=O)CCNC(=O)c1conc1CCl

$$$$

  CDD

  0  0  0  0  0  0            999 V2000
M  END
> <Molecule Name>
CVD-0012338

> <SMILES>
CCC(NC(=O)c1conc1CCl)C(O)=O

$$$$

  CDD

  0  0  0  0  0  0            999 V2000
M  END
> <Molecule Name>
CVD-0012337

> <SMILES>
Oc1cc(F)ccc1NC(=O)c1conc1CCl

$$$$

  CDD

  0  0  0  0  0  0            999 V2000
M  END
> <Molecule Name>
CVD-0012336

> <SMILES>
CCOC(=O)C(C)(C)NC(=O)c1conc1CCl

$$$$

  CDD

  0  0  0  0  0  0            999 V2000
M  END
> <Molecule Name>
CVD-0012335

> <SMILES>
ClCc1nocc1C(=O)NCC1OCCO1

$$$$

  CDD

  0  0  0  0  0  0            999 V2000
M  END
> <Molecule Name>
CVD-0012334

> <SMILES>
COc1cccc(NC(=O)c2conc2CCl)c1O

$$$$

  CDD

  0  0  0  0  0  0            999 V2000
M  END
> <Molecule Name>
CVD-0012333

> <SMILES>
Nc1cc(Br)c(O)c(NC(=O)c2conc2CCl)c1

$$$$

  CDD

  0  0  0  0  0  0            999 V2000
M  END
> <Molecule Name>
CVD-0012332

> <SMILES>
OC(=O)CNC(=O)c1conc1CCl

$$$$

  CDD

  0  0  0  0  0  0            999 V2000
M  END
> <Molecule Name>
CVD-0012331

> <SMILES>
Nc1ccc(O)c(NC(=O)c2conc2CCl)c1

$$$$

  CDD

  0  0  0  0  0  0            999 V2000
M  END
> <Molecule Name>
CVD-0012330

> <SMILES>
CC(=O)C(NC(=O)c1conc1CCl)C(C)=O

$$$$

  CDD

  0  0  0  0  0  0            999 V2000
M  END
> <Molecule Name>
CVD-0012329

> <SMILES>
OC(=O)c1cccnc1NC(=O)c1conc1CCl

$$$$

  CDD

  0  0  0  0  0  0            999 V2000
M  END
> <Molecule Name>
CVD-0012328

> <SMILES>
COC(=O)c1cc(Cl)ccc1NC(=O)c1conc1CCl

$$$$

  CDD

  0  0  0  0  0  0            999 V2000
M  END
> <Molecule Name>
CVD-0012327

> <SMILES>
COC(=O)C(NC(=O)c1conc1CCl)C(C)=O

$$$$

  CDD

  0  0  0  0  0  0            999 V2000
M  END
> <Molecule Name>
CVD-0012326

> <SMILES>
OC(=O)c1cc(Cl)ccc1NC(=O)c1conc1CCl

$$$$

  CDD

  0  0  0  0  0  0            999 V2000
M  END
> <Molecule Name>
CVD-0012325

> <SMILES>
ClCc1nocc1C(=O)NCS(=O)(=O)c1ccccc1

$$$$

  CDD

  0  0  0  0  0  0            999 V2000
M  END
> <Molecule Name>
CVD-0012324

> <SMILES>
NC(=N)SCc1ccc(NC(=O)c2conc2CCl)cc1

$$$$

  CDD

  0  0  0  0  0  0            999 V2000
M  END
> <Molecule Name>
CVD-0012323

> <SMILES>
NC(=O)CCNC(=O)c1conc1CCl

$$$$

  CDD

  0  0  0  0  0  0            999 V2000
M  END
> <Molecule Name>
CVD-0012322

> <SMILES>
OC(=O)c1cccc(NC(=O)c2conc2CCl)c1O

$$$$

  CDD

  0  0  0  0  0  0            999 V2000
M  END
> <Molecule Name>
CVD-0012321

> <SMILES>
Nc1cc(Cl)c(O)c(NC(=O)c2conc2CCl)c1

$$$$

  CDD

  0  0  0  0  0  0            999 V2000
M  END
> <Molecule Name>
CVD-0012320

> <SMILES>
ClCc1nocc1C(=O)NCC(=O)OCC=C

$$$$

  CDD

  0  0  0  0  0  0            999 V2000
M  END
> <Molecule Name>
CVD-0012319

> <SMILES>
OC(=O)CCNC(=O)c1conc1CCl

$$$$

  CDD

  0  0  0  0  0  0            999 V2000
M  END
> <Molecule Name>
CVD-0012318

> <SMILES>
CN(C)C(=O)C(NC(=O)c1conc1CCl)C(C)=O

$$$$

  CDD

  0  0  0  0  0  0            999 V2000
M  END
> <Molecule Name>
CVD-0012317

> <SMILES>
Oc1ccc(cc1)C(=O)CCCNC(=O)c1conc1CCl

$$$$

  CDD

  0  0  0  0  0  0            999 V2000
M  END
> <Molecule Name>
CVD-0012316

> <SMILES>
ClCC(=O)CNC(=O)c1conc1CCl

$$$$

  CDD

  0  0  0  0  0  0            999 V2000
M  END
> <Molecule Name>
CVD-0012315

> <SMILES>
OCCCNC(=O)c1conc1CCl

$$$$

  CDD

  0  0  0  0  0  0            999 V2000
M  END
> <Molecule Name>
CVD-0012314

> <SMILES>
CCC(NC(=O)c1conc1CCl)C(=O)OC

$$$$

  CDD

  0  0  0  0  0  0            999 V2000
M  END
> <Molecule Name>
CVD-0012313

> <SMILES>
CCOC(CNC(=O)c1conc1CCl)OCC

$$$$

  CDD

  0  0  0  0  0  0            999 V2000
M  END
> <Molecule Name>
CVD-0012312

> <SMILES>
ClCc1nocc1C(=O)Nc1ccccc1N=N

$$$$

  CDD

  0  0  0  0  0  0            999 V2000
M  END
> <Molecule Name>
CVD-0012311

> <SMILES>
COC(=O)CC(=O)CNC(=O)c1conc1CCl

$$$$

  CDD

  0  0  0  0  0  0            999 V2000
M  END
> <Molecule Name>
CVD-0012310

> <SMILES>
CCOC(=O)C(NC(=O)c1conc1CCl)C(C)=O

$$$$

  CDD

  0  0  0  0  0  0            999 V2000
M  END
> <Molecule Name>
CVD-0012309

> <SMILES>
CC(=O)OCCNC(=O)c1conc1CCl

$$$$

  CDD

  0  0  0  0  0  0            999 V2000
M  END
> <Molecule Name>
CVD-0012308

> <SMILES>
CC(C)(NC(=O)c1conc1CCl)C(=O)OCC=C

$$$$

  CDD

  0  0  0  0  0  0            999 V2000
M  END
> <Molecule Name>
CVD-0012307

> <SMILES>
COC(CCNC(=O)c1conc1CCl)OC

$$$$

  CDD

  0  0  0  0  0  0            999 V2000
M  END
> <Molecule Name>
CVD-0012306

> <SMILES>
CC(C)(NC(=O)c1conc1CCl)C(O)=O

$$$$

  CDD

  0  0  0  0  0  0            999 V2000
M  END
> <Molecule Name>
CVD-0012305

> <SMILES>
COCCOCCNC(=O)c1conc1CCl

$$$$

  CDD

  0  0  0  0  0  0            999 V2000
M  END
> <Molecule Name>
CVD-0012304

> <SMILES>
Nc1cccc(NC(=O)c2conc2CCl)c1C(O)=O

$$$$

  CDD

  0  0  0  0  0  0            999 V2000
M  END
> <Molecule Name>
CVD-0012303

> <SMILES>
ClCc1nocc1C(=O)NCC1CNC(=O)O1

$$$$

  CDD

  0  0  0  0  0  0            999 V2000
M  END
> <Molecule Name>
CVD-0012302

> <SMILES>
Oc1cccnc1NC(=O)c1conc1CCl

$$$$

  CDD

  0  0  0  0  0  0            999 V2000
M  END
> <Molecule Name>
CVD-0012301

> <SMILES>
Oc1ccc(O)c(NC(=O)c2conc2CCl)c1

$$$$

  CDD

  0  0  0  0  0  0            999 V2000
M  END
> <Molecule Name>
CVD-0012300

> <SMILES>
CSc1ccc(NC(=O)c2conc2CCl)c(c1)C(O)=O

$$$$

  CDD

  0  0  0  0  0  0            999 V2000
M  END
> <Molecule Name>
CVD-0012299

> <SMILES>
CCOC(=O)CC(=O)CNC(=O)c1conc1CCl

$$$$

  CDD

  0  0  0  0  0  0            999 V2000
M  END
> <Molecule Name>
CVD-0012298

> <SMILES>
CC(O)CNC(=O)c1conc1CCl

$$$$

  CDD

  0  0  0  0  0  0            999 V2000
M  END
> <Molecule Name>
CVD-0012297

> <SMILES>
OC(=O)c1c(F)cccc1NC(=O)c1conc1CCl

$$$$

  CDD

  0  0  0  0  0  0            999 V2000
M  END
> <Molecule Name>
CVD-0012296

> <SMILES>
COC(=O)CC(=O)NC(=O)c1conc1CCl

$$$$

  CDD

  0  0  0  0  0  0            999 V2000
M  END
> <Molecule Name>
CVD-0012295

> <SMILES>
ClCc1nocc1C(=O)NCC1CCCCO1

$$$$

  CDD

  0  0  0  0  0  0            999 V2000
M  END
> <Molecule Name>
CVD-0012294

> <SMILES>
Oc1cc(Cl)ccc1NC(=O)c1conc1CCl

$$$$

  CDD

  0  0  0  0  0  0            999 V2000
M  END
> <Molecule Name>
CVD-0012293

> <SMILES>
ClCc1nocc1C(=O)NCc1ccccc1C#N

$$$$

  CDD

  0  0  0  0  0  0            999 V2000
M  END
> <Molecule Name>
CVD-0012292

> <SMILES>
COc1ccc(NC(=O)c2conc2CCl)c(OC)c1

$$$$

  CDD

  0  0  0  0  0  0            999 V2000
M  END
> <Molecule Name>
CVD-0012291

> <SMILES>
COC(=O)CCNC(=O)c1conc1CCl

$$$$

  CDD

  0  0  0  0  0  0            999 V2000
M  END
> <Molecule Name>
CVD-0012290

> <SMILES>
CC(NC(=O)c1conc1CCl)C(C)=O

$$$$

  CDD

  0  0  0  0  0  0            999 V2000
M  END
> <Molecule Name>
CVD-0012289

> <SMILES>
Cc1ccc(NC(=O)c2conc2CCl)c(c1)C(O)=O

$$$$

  CDD

  0  0  0  0  0  0            999 V2000
M  END
> <Molecule Name>
CVD-0012288

> <SMILES>
CCOC(CCNC(=O)c1conc1CCl)OCC

$$$$

  CDD

  0  0  0  0  0  0            999 V2000
M  END
> <Molecule Name>
CVD-0012287

> <SMILES>
CCC(=O)CNC(=O)c1conc1CCl

$$$$

  CDD

  0  0  0  0  0  0            999 V2000
M  END
> <Molecule Name>
CVD-0012286

> <SMILES>
Oc1ccc(F)cc1NC(=O)c1conc1CCl

$$$$

  CDD

  0  0  0  0  0  0            999 V2000
M  END
> <Molecule Name>
CVD-0012285

> <SMILES>
Oc1c(Br)cc(F)cc1NC(=O)c1conc1CCl

$$$$

  CDD

  0  0  0  0  0  0            999 V2000
M  END
> <Molecule Name>
CVD-0012284

> <SMILES>
CCC(=O)CCNC(=O)c1conc1CCl

$$$$

  CDD

  0  0  0  0  0  0            999 V2000
M  END
> <Molecule Name>
CVD-0012283

> <SMILES>
OC(=O)C(=O)CNC(=O)c1conc1CCl

$$$$

  CDD

  0  0  0  0  0  0            999 V2000
M  END
> <Molecule Name>
CVD-0012282

> <SMILES>
Nc1ccc(NC(=O)c2conc2CCl)c(c1)C(O)=O

$$$$

  CDD

  0  0  0  0  0  0            999 V2000
M  END
> <Molecule Name>
CVD-0012281

> <SMILES>
CC(NC(=O)c1conc1CCl)C(N)=O

$$$$

  CDD

  0  0  0  0  0  0            999 V2000
M  END
> <Molecule Name>
CVD-0012280

> <SMILES>
COC(=O)C(NC(=O)c1conc1CCl)C(=O)OC

$$$$

  CDD

  0  0  0  0  0  0            999 V2000
M  END
> <Molecule Name>
CVD-0012279

> <SMILES>
CC(C)(CNC(=O)c1conc1CCl)C(O)=O

$$$$

  CDD

  0  0  0  0  0  0            999 V2000
M  END
> <Molecule Name>
CVD-0012278

> <SMILES>
Oc1c(Cl)cc(F)cc1NC(=O)c1conc1CCl

$$$$

  CDD

  0  0  0  0  0  0            999 V2000
M  END
> <Molecule Name>
CVD-0012277

> <SMILES>
CC(CO)NC(=O)c1conc1CCl

$$$$

  CDD

  0  0  0  0  0  0            999 V2000
M  END
> <Molecule Name>
CVD-0012276

> <SMILES>
ClCc1nocc1C(=O)NCCC(=O)c1ccccc1

$$$$

  CDD

  0  0  0  0  0  0            999 V2000
M  END
> <Molecule Name>
CVD-0012275

> <SMILES>
CCOC(=O)CC(=O)NC(=O)c1conc1CCl

$$$$

  CDD

  0  0  0  0  0  0            999 V2000
M  END
> <Molecule Name>
CVD-0012274

> <SMILES>
CC(NC(=O)c1conc1CCl)C(O)=O

$$$$

  CDD

  0  0  0  0  0  0            999 V2000
M  END
> <Molecule Name>
CVD-0012273

> <SMILES>
OC(=O)c1cc(F)ccc1NC(=O)c1conc1CCl

$$$$

  CDD

  0  0  0  0  0  0            999 V2000
M  END
> <Molecule Name>
CVD-0012272

> <SMILES>
Oc1c(F)cc(F)cc1NC(=O)c1conc1CCl

$$$$

  CDD

  0  0  0  0  0  0            999 V2000
M  END
> <Molecule Name>
CVD-0012271

> <SMILES>
OC(=O)C(=C)CNC(=O)c1conc1CCl

$$$$

  CDD

  0  0  0  0  0  0            999 V2000
M  END
> <Molecule Name>
CVD-0012270

> <SMILES>
OCC(O)CNC(=O)c1conc1CCl

$$$$

  CDD

  0  0  0  0  0  0            999 V2000
M  END
> <Molecule Name>
CVD-0012269

> <SMILES>
COC(CNC(=O)c1conc1CCl)CC(=O)OC

$$$$

  CDD

  0  0  0  0  0  0            999 V2000
M  END
> <Molecule Name>
CVD-0012268

> <SMILES>
Oc1cc(F)c(F)cc1NC(=O)c1conc1CCl

$$$$

  CDD

  0  0  0  0  0  0            999 V2000
M  END
> <Molecule Name>
CVD-0012267

> <SMILES>
NC(CNC(=O)c1conc1CCl)C(O)=O

$$$$

  CDD

  0  0  0  0  0  0            999 V2000
M  END
> <Molecule Name>
CVD-0012266

> <SMILES>
ClCc1nocc1C(=O)NCCCOC1CCCCO1

$$$$

  CDD

  0  0  0  0  0  0            999 V2000
M  END
> <Molecule Name>
CVD-0012265

> <SMILES>
CCOC(=O)CCNC(=O)c1conc1CCl

$$$$

  CDD

  0  0  0  0  0  0            999 V2000
M  END
> <Molecule Name>
CVD-0012264

> <SMILES>
ClCc1nocc1C(=O)NCC(=O)C(=O)CBr

$$$$

  CDD

  0  0  0  0  0  0            999 V2000
M  END
> <Molecule Name>
CVD-0012263

> <SMILES>
OC(=O)C(Br)CNC(=O)c1conc1CCl

$$$$

  CDD

  0  0  0  0  0  0            999 V2000
M  END
> <Molecule Name>
CVD-0012262

> <SMILES>
OC(CF)CNC(=O)c1conc1CCl

$$$$

  CDD

  0  0  0  0  0  0            999 V2000
M  END
> <Molecule Name>
CVD-0012261

> <SMILES>
CCOC(=O)CNC(=O)CNC(=O)c1conc1CCl

$$$$

  CDD

  0  0  0  0  0  0            999 V2000
M  END
> <Molecule Name>
CVD-0012260

> <SMILES>
CCOC(=O)C(Br)CNC(=O)c1conc1CCl

$$$$

  CDD

  0  0  0  0  0  0            999 V2000
M  END
> <Molecule Name>
CVD-0012259

> <SMILES>
OC(=O)CC(NC(=O)c1conc1CCl)C(O)=O

$$$$

  CDD

  0  0  0  0  0  0            999 V2000
M  END
> <Molecule Name>
CVD-0012258

> <SMILES>
OC(=O)C(CBr)CNC(=O)c1conc1CCl

$$$$

  CDD

  0  0  0  0  0  0            999 V2000
M  END
> <Molecule Name>
CVD-0012257

> <SMILES>
COC(=O)C(Cl)CNC(=O)c1conc1CCl

$$$$

  CDD

  0  0  0  0  0  0            999 V2000
M  END
> <Molecule Name>
CVD-0012256

> <SMILES>
COc1ccc(OC)c(NC(=O)c2conc2CCl)c1

$$$$

  CDD

  0  0  0  0  0  0            999 V2000
M  END
> <Molecule Name>
CVD-0012255

> <SMILES>
COC(=O)C(C)CNC(=O)c1conc1CCl

$$$$

  CDD

  0  0  0  0  0  0            999 V2000
M  END
> <Molecule Name>
CVD-0012254

> <SMILES>
COc1ccc(NC(=O)c2conc2CCl)c(c1)C(O)=O

$$$$

  CDD

  0  0  0  0  0  0            999 V2000
M  END
> <Molecule Name>
CVD-0012253

> <SMILES>
OC(CCl)CNC(=O)c1conc1CCl

$$$$

  CDD

  0  0  0  0  0  0            999 V2000
M  END
> <Molecule Name>
CVD-0012252

> <SMILES>
COc1ccc(O)c(NC(=O)c2conc2CCl)c1

$$$$

  CDD

  0  0  0  0  0  0            999 V2000
M  END
> <Molecule Name>
CVD-0012251

> <SMILES>
OC(CBr)CNC(=O)c1conc1CCl

$$$$

  CDD

  0  0  0  0  0  0            999 V2000
M  END
> <Molecule Name>
CVD-0012250

> <SMILES>
COC(=O)C(CBr)CNC(=O)c1conc1CCl

$$$$

  CDD

  0  0  0  0  0  0            999 V2000
M  END
> <Molecule Name>
CVD-0012249

> <SMILES>
CC(=O)c1cc(Cl)sc1NC(=O)c1conc1CCl

$$$$

  CDD

  0  0  0  0  0  0            999 V2000
M  END
> <Molecule Name>
CVD-0012248

> <SMILES>
OC(=O)Cc1ccc(O)c(NC(=O)c2conc2CCl)c1

$$$$

  CDD

  0  0  0  0  0  0            999 V2000
M  END
> <Molecule Name>
CVD-0012247

> <SMILES>
OC(=O)CCCCCNc1c[nH]nc1CCl

$$$$

  CDD

  0  0  0  0  0  0            999 V2000
M  END
> <Molecule Name>
CVD-0012246

> <SMILES>
CN(CCCN)CCCNc1c[nH]nc1CCl

$$$$

  CDD

  0  0  0  0  0  0            999 V2000
M  END
> <Molecule Name>
CVD-0012245

> <SMILES>
CN(CCCCC(N)C(O)=O)c1c[nH]nc1CCl

$$$$

  CDD

  0  0  0  0  0  0            999 V2000
M  END
> <Molecule Name>
CVD-0012244

> <SMILES>
OS(=O)(=O)CCCNc1c[nH]nc1CCl

$$$$

  CDD

  0  0  0  0  0  0            999 V2000
M  END
> <Molecule Name>
CVD-0012243

> <SMILES>
CC(=C)C(=O)OCCN1CCN(C1=O)c1c[nH]nc1CCl

$$$$

  CDD

  0  0  0  0  0  0            999 V2000
M  END
> <Molecule Name>
CVD-0012242

> <SMILES>
OC(=O)CCNc1c[nH]nc1CCl

$$$$

  CDD

  0  0  0  0  0  0            999 V2000
M  END
> <Molecule Name>
CVD-0012241

> <SMILES>
CCOC(=O)C(CO)Nc1c[nH]nc1CCl

$$$$

  CDD

  0  0  0  0  0  0            999 V2000
M  END
> <Molecule Name>
CVD-0012240

> <SMILES>
OCC(O)C(O)C(O)C(O)CNc1c[nH]nc1CCl

$$$$

  CDD

  0  0  0  0  0  0            999 V2000
M  END
> <Molecule Name>
CVD-0012239

> <SMILES>
NCCNCCCNc1c[nH]nc1CCl

$$$$

  CDD

  0  0  0  0  0  0            999 V2000
M  END
> <Molecule Name>
CVD-0012238

> <SMILES>
NC(CCCNc1c[nH]nc1CCl)C(O)=O

$$$$

  CDD

  0  0  0  0  0  0            999 V2000
M  END
> <Molecule Name>
CVD-0012237

> <SMILES>
ON(Cc1ccccn1)c1c[nH]nc1CCl

$$$$

  CDD

  0  0  0  0  0  0            999 V2000
M  END
> <Molecule Name>
CVD-0012236

> <SMILES>
CCC(C)C(Nc1c[nH]nc1CCl)C(O)=O

$$$$

  CDD

  0  0  0  0  0  0            999 V2000
M  END
> <Molecule Name>
CVD-0012235

> <SMILES>
OC(=O)C(CS(O)(=O)=O)Nc1c[nH]nc1CCl

$$$$

  CDD

  0  0  0  0  0  0            999 V2000
M  END
> <Molecule Name>
CVD-0012234

> <SMILES>
NCCCCCCCNc1c[nH]nc1CCl

$$$$

  CDD

  0  0  0  0  0  0            999 V2000
M  END
> <Molecule Name>
CVD-0012233

> <SMILES>
CCOC(=O)CN(C)c1c[nH]nc1CCl

$$$$

  CDD

  0  0  0  0  0  0            999 V2000
M  END
> <Molecule Name>
CVD-0012232

> <SMILES>
Cc1ccc(cc1)S(=O)(=O)N(CC(O)=O)c1c[nH]nc1CCl

$$$$

  CDD

  0  0  0  0  0  0            999 V2000
M  END
> <Molecule Name>
CVD-0012231

> <SMILES>
CCOC(=O)Cc1csc(n1)N(C=O)c1c[nH]nc1CCl

$$$$

  CDD

  0  0  0  0  0  0            999 V2000
M  END
> <Molecule Name>
CVD-0012230

> <SMILES>
OC(=O)C1CN(C(=O)N1)c1c[nH]nc1CCl

$$$$

  CDD

  0  0  0  0  0  0            999 V2000
M  END
> <Molecule Name>
CVD-0012229

> <SMILES>
CN(CC(O)=O)c1c[nH]nc1CCl

$$$$

  CDD

  0  0  0  0  0  0            999 V2000
M  END
> <Molecule Name>
CVD-0012228

> <SMILES>
CCOC(=O)C(N(C=O)c1c[nH]nc1CCl)C(=O)OCC

$$$$

  CDD

  0  0  0  0  0  0            999 V2000
M  END
> <Molecule Name>
CVD-0012227

> <SMILES>
COc1cc(ccc1O)C(O)CN(C)c1c[nH]nc1CCl

$$$$

  CDD

  0  0  0  0  0  0            999 V2000
M  END
> <Molecule Name>
CVD-0012226

> <SMILES>
NC(=O)C(CO)Nc1c[nH]nc1CCl

$$$$

  CDD

  0  0  0  0  0  0            999 V2000
M  END
> <Molecule Name>
CVD-0012225

> <SMILES>
OCC(Nc1c[nH]nc1CCl)C(O)=O

$$$$

  CDD

  0  0  0  0  0  0            999 V2000
M  END
> <Molecule Name>
CVD-0012224

> <SMILES>
OC(CNc1c[nH]nc1CCl)CC(O)=O

$$$$

  CDD

  0  0  0  0  0  0            999 V2000
M  END
> <Molecule Name>
CVD-0012223

> <SMILES>
OC(=O)CN(Cc1ccccc1)c1c[nH]nc1CCl

$$$$

  CDD

  0  0  0  0  0  0            999 V2000
M  END
> <Molecule Name>
CVD-0012222

> <SMILES>
NCCC(=O)CNc1c[nH]nc1CCl

$$$$

  CDD

  0  0  0  0  0  0            999 V2000
M  END
> <Molecule Name>
CVD-0012221

> <SMILES>
OC(=O)C(Nc1c[nH]nc1CCl)c1ccccc1F

$$$$

  CDD

  0  0  0  0  0  0            999 V2000
M  END
> <Molecule Name>
CVD-0012220

> <SMILES>
OS(=O)(=O)CCCSC(=N)Nc1c[nH]nc1CCl

$$$$

  CDD

  0  0  0  0  0  0            999 V2000
M  END
> <Molecule Name>
CVD-0012219

> <SMILES>
OC(=O)c1cc(Cl)c(=O)n(c1)-c1c[nH]nc1CCl

$$$$

  CDD

  0  0  0  0  0  0            999 V2000
M  END
> <Molecule Name>
CVD-0012218

> <SMILES>
ClCc1n[nH]cc1NCc1ccco1

$$$$

  CDD

  0  0  0  0  0  0            999 V2000
M  END
> <Molecule Name>
CVD-0012217

> <SMILES>
COC(=O)CN(C(SC)SC)c1c[nH]nc1CCl

$$$$

  CDD

  0  0  0  0  0  0            999 V2000
M  END
> <Molecule Name>
CVD-0012216

> <SMILES>
OS(=O)(=O)N(C1CCCCC1)c1c[nH]nc1CCl

$$$$

  CDD

  0  0  0  0  0  0            999 V2000
M  END
> <Molecule Name>
CVD-0012215

> <SMILES>
OC(=O)CC(Nc1c[nH]nc1CCl)c1ccccc1

$$$$

  CDD

  0  0  0  0  0  0            999 V2000
M  END
> <Molecule Name>
CVD-0012214

> <SMILES>
ClCc1n[nH]cc1NCc1nc2ccccc2[nH]1

$$$$

  CDD

  0  0  0  0  0  0            999 V2000
M  END
> <Molecule Name>
CVD-0012213

> <SMILES>
OC(=O)CCCCCCNc1c[nH]nc1CCl

$$$$

  CDD

  0  0  0  0  0  0            999 V2000
M  END
> <Molecule Name>
CVD-0012212

> <SMILES>
NC(=N)NCCCCNc1c[nH]nc1CCl

$$$$

  CDD

  0  0  0  0  0  0            999 V2000
M  END
> <Molecule Name>
CVD-0012211

> <SMILES>
CN(c1c[nH]nc1CCl)C(C)(C)C(O)=O

$$$$

  CDD

  0  0  0  0  0  0            999 V2000
M  END
> <Molecule Name>
CVD-0012210

> <SMILES>
COC(=O)C(CO)Nc1c[nH]nc1CCl

$$$$

  CDD

  0  0  0  0  0  0            999 V2000
M  END
> <Molecule Name>
CVD-0012209

> <SMILES>
COC(=O)CCC(Nc1c[nH]nc1CCl)C(O)=O

$$$$

  CDD

  0  0  0  0  0  0            999 V2000
M  END
> <Molecule Name>
CVD-0012208

> <SMILES>
COC(CNc1c[nH]nc1CCl)OC

$$$$

  CDD

  0  0  0  0  0  0            999 V2000
M  END
> <Molecule Name>
CVD-0012207

> <SMILES>
CC(C)C(Nc1c[nH]nc1CCl)C(O)=O

$$$$

  CDD

  0  0  0  0  0  0            999 V2000
M  END
> <Molecule Name>
CVD-0012206

> <SMILES>
OC(=O)CSCC(Nc1c[nH]nc1CCl)C(O)=O

$$$$

  CDD

  0  0  0  0  0  0            999 V2000
M  END
> <Molecule Name>
CVD-0012205

> <SMILES>
ClCc1n[nH]cc1N(CC#N)S(=O)(=O)c1ccc2ccccc2c1

$$$$

  CDD

  0  0  0  0  0  0            999 V2000
M  END
> <Molecule Name>
CVD-0012204

> <SMILES>
ClCc1n[nH]cc1N1CC(=O)NC1=O

$$$$

  CDD

  0  0  0  0  0  0            999 V2000
M  END
> <Molecule Name>
CVD-0012203

> <SMILES>
Oc1cc(CNc2c[nH]nc2CCl)on1

$$$$

  CDD

  0  0  0  0  0  0            999 V2000
M  END
> <Molecule Name>
CVD-0012202

> <SMILES>
CC(O)C(Nc1c[nH]nc1CCl)C(O)=O

$$$$

  CDD

  0  0  0  0  0  0            999 V2000
M  END
> <Molecule Name>
CVD-0012201

> <SMILES>
CC1(C)OC(=O)N(C1=O)c1c[nH]nc1CCl

$$$$

  CDD

  0  0  0  0  0  0            999 V2000
M  END
> <Molecule Name>
CVD-0012200

> <SMILES>
NC(CCOCCNc1c[nH]nc1CCl)C(O)=O

$$$$

  CDD

  0  0  0  0  0  0            999 V2000
M  END
> <Molecule Name>
CVD-0012199

> <SMILES>
ClCc1n[nH]cc1NCc1cccnc1

$$$$

  CDD

  0  0  0  0  0  0            999 V2000
M  END
> <Molecule Name>
CVD-0012198

> <SMILES>
OC(=O)C(CS(O)=O)Nc1c[nH]nc1CCl

$$$$

  CDD

  0  0  0  0  0  0            999 V2000
M  END
> <Molecule Name>
CVD-0012197

> <SMILES>
CCOC(=O)C(N(O)c1c[nH]nc1CCl)c1csc(N)n1

$$$$

  CDD

  0  0  0  0  0  0            999 V2000
M  END
> <Molecule Name>
CVD-0012196

> <SMILES>
ON(Cc1cccnc1)c1c[nH]nc1CCl

$$$$

  CDD

  0  0  0  0  0  0            999 V2000
M  END
> <Molecule Name>
CVD-0012195

> <SMILES>
OC(=O)C(CCl)Nc1c[nH]nc1CCl

$$$$

  CDD

  0  0  0  0  0  0            999 V2000
M  END
> <Molecule Name>
CVD-0012194

> <SMILES>
NC(CCCCNc1c[nH]nc1CCl)C(O)=O

$$$$

  CDD

  0  0  0  0  0  0            999 V2000
M  END
> <Molecule Name>
CVD-0012193

> <SMILES>
OC(=O)CCC(=O)CNc1c[nH]nc1CCl

$$$$

  CDD

  0  0  0  0  0  0            999 V2000
M  END
> <Molecule Name>
CVD-0012192

> <SMILES>
NC(=O)CCC(Nc1c[nH]nc1CCl)C(O)=O

$$$$

  CDD

  0  0  0  0  0  0            999 V2000
M  END
> <Molecule Name>
CVD-0012191

> <SMILES>
ClCc1n[nH]cc1N1C(=O)COc2cccnc12

$$$$

  CDD

  0  0  0  0  0  0            999 V2000
M  END
> <Molecule Name>
CVD-0012190

> <SMILES>
COC(CN(C)c1c[nH]nc1CCl)OC

$$$$

  CDD

  0  0  0  0  0  0            999 V2000
M  END
> <Molecule Name>
CVD-0012189

> <SMILES>
OCCC(Nc1c[nH]nc1CCl)C(O)=O

$$$$

  CDD

  0  0  0  0  0  0            999 V2000
M  END
> <Molecule Name>
CVD-0012188

> <SMILES>
ClCc1n[nH]cc1N1C(=O)NC(=O)C1=O

$$$$

  CDD

  0  0  0  0  0  0            999 V2000
M  END
> <Molecule Name>
CVD-0012187

> <SMILES>
Fc1cn(C2CCCO2)c(=O)n(-c2c[nH]nc2CCl)c1=O

$$$$

  CDD

  0  0  0  0  0  0            999 V2000
M  END
> <Molecule Name>
CVD-0012186

> <SMILES>
NCCNCCNCCNc1c[nH]nc1CCl

$$$$

  CDD

  0  0  0  0  0  0            999 V2000
M  END
> <Molecule Name>
CVD-0012185

> <SMILES>
OC(=O)CCCCCCCNc1c[nH]nc1CCl

$$$$

  CDD

  0  0  0  0  0  0            999 V2000
M  END
> <Molecule Name>
CVD-0012184

> <SMILES>
NC(CSCC(Nc1c[nH]nc1CCl)C(O)=O)C(O)=O

$$$$

  CDD

  0  0  0  0  0  0            999 V2000
M  END
> <Molecule Name>
CVD-0012183

> <SMILES>
NS(=O)(=O)c1ccc(CCNc2c[nH]nc2CCl)cc1

$$$$

  CDD

  0  0  0  0  0  0            999 V2000
M  END
> <Molecule Name>
CVD-0012182

> <SMILES>
OC(=O)C(CC=C)Nc1c[nH]nc1CCl

$$$$

  CDD

  0  0  0  0  0  0            999 V2000
M  END
> <Molecule Name>
CVD-0012181

> <SMILES>
NCc1ccc(CNc2c[nH]nc2CCl)cc1

$$$$

  CDD

  0  0  0  0  0  0            999 V2000
M  END
> <Molecule Name>
CVD-0012180

> <SMILES>
COC(=O)C(CCSC)Nc1c[nH]nc1CCl

$$$$

  CDD

  0  0  0  0  0  0            999 V2000
M  END
> <Molecule Name>
CVD-0012179

> <SMILES>
COC(=O)C(Nc1c[nH]nc1CCl)C(=O)OC

$$$$

  CDD

  0  0  0  0  0  0            999 V2000
M  END
> <Molecule Name>
CVD-0012178

> <SMILES>
OCc1ccccc1Sc1ccccc1CNc1c[nH]nc1CCl

$$$$

  CDD

  0  0  0  0  0  0            999 V2000
M  END
> <Molecule Name>
CVD-0012177

> <SMILES>
OC(=O)CCC(Nc1c[nH]nc1CCl)C(O)=O

$$$$

  CDD

  0  0  0  0  0  0            999 V2000
M  END
> <Molecule Name>
CVD-0012176

> <SMILES>
CCOC(=O)C(Nc1c[nH]nc1CCl)C(C)C

$$$$

  CDD

  0  0  0  0  0  0            999 V2000
M  END
> <Molecule Name>
CVD-0012175

> <SMILES>
COC(=O)C(Nc1c[nH]nc1CCl)C(C)C

$$$$

  CDD

  0  0  0  0  0  0            999 V2000
M  END
> <Molecule Name>
CVD-0012174

> <SMILES>
CCOC(=O)C(CCSC)Nc1c[nH]nc1CCl

$$$$

  CDD

  0  0  0  0  0  0            999 V2000
M  END
> <Molecule Name>
CVD-0012173

> <SMILES>
CN(C(CC(O)=O)C(O)=O)c1c[nH]nc1CCl

$$$$

  CDD

  0  0  0  0  0  0            999 V2000
M  END
> <Molecule Name>
CVD-0012172

> <SMILES>
NC(CCC(O)CNc1c[nH]nc1CCl)C(O)=O

$$$$

  CDD

  0  0  0  0  0  0            999 V2000
M  END
> <Molecule Name>
CVD-0012171

> <SMILES>
COC1OC(CNc2c[nH]nc2CCl)(OC)C=C1

$$$$

  CDD

  0  0  0  0  0  0            999 V2000
M  END
> <Molecule Name>
CVD-0012170

> <SMILES>
OC(=O)CNC(=O)CNc1c[nH]nc1CCl

$$$$

  CDD

  0  0  0  0  0  0            999 V2000
M  END
> <Molecule Name>
CVD-0012169

> <SMILES>
NC(=O)NCC(Nc1c[nH]nc1CCl)C(O)=O

$$$$

  CDD

  0  0  0  0  0  0            999 V2000
M  END
> <Molecule Name>
CVD-0012168

> <SMILES>
CCOC(CNc1c[nH]nc1CCl)OCC

$$$$

  CDD

  0  0  0  0  0  0            999 V2000
M  END
> <Molecule Name>
CVD-0012167

> <SMILES>
COC(=O)CCC(=O)CNc1c[nH]nc1CCl

$$$$

  CDD

  0  0  0  0  0  0            999 V2000
M  END
> <Molecule Name>
CVD-0012166

> <SMILES>
OC(=O)CNCCN(CC(O)=O)c1c[nH]nc1CCl

$$$$

  CDD

  0  0  0  0  0  0            999 V2000
M  END
> <Molecule Name>
CVD-0012165

> <SMILES>
Cc1cn(-c2c[nH]nc2CCl)c-2nc(N)nc(=O)c-2n1

$$$$

  CDD

  0  0  0  0  0  0            999 V2000
M  END
> <Molecule Name>
CVD-0012164

> <SMILES>
OCCOCCN1CCN(CC1)c1c[nH]nc1CCl

$$$$

  CDD

  0  0  0  0  0  0            999 V2000
M  END
> <Molecule Name>
CVD-0012163

> <SMILES>
ON(CCNC(=O)Cc1ccccc1)c1c[nH]nc1CCl

$$$$

  CDD

  0  0  0  0  0  0            999 V2000
M  END
> <Molecule Name>
CVD-0012162

> <SMILES>
NC(=O)CC(Nc1c[nH]nc1CCl)C(O)=O

$$$$

  CDD

  0  0  0  0  0  0            999 V2000
M  END
> <Molecule Name>
CVD-0012161

> <SMILES>
NC(=N)SCCNc1c[nH]nc1CCl

$$$$

  CDD

  0  0  0  0  0  0            999 V2000
M  END
> <Molecule Name>
CVD-0012160

> <SMILES>
OC(=O)CC(Nc1c[nH]nc1CCl)C(O)=O

$$$$

  CDD

  0  0  0  0  0  0            999 V2000
M  END
> <Molecule Name>
CVD-0012159

> <SMILES>
ClCc1n[nH]cc1N(Cn1nnc2ccccc12)C=O

$$$$

  CDD

  0  0  0  0  0  0            999 V2000
M  END
> <Molecule Name>
CVD-0012158

> <SMILES>
OCC1OC(C(O)C1O)n1cc(Br)c(=O)n(-c2c[nH]nc2CCl)c1=O

$$$$

  CDD

  0  0  0  0  0  0            999 V2000
M  END
> <Molecule Name>
CVD-0012157

> <SMILES>
OCC1OC(C(O)C1O)n1cc(I)c(=O)n(-c2c[nH]nc2CCl)c1=O

$$$$

  CDD

  0  0  0  0  0  0            999 V2000
M  END
> <Molecule Name>
CVD-0012156

> <SMILES>
Cc1cn(C2OC(CO)C(O)C2O)c(=O)n(-c2c[nH]nc2CCl)c1=O

$$$$

  CDD

  0  0  0  0  0  0            999 V2000
M  END
> <Molecule Name>
CVD-0012155

> <SMILES>
OCC1OC(C(O)C1O)n1cc(F)c(=O)n(-c2c[nH]nc2CCl)c1=O

$$$$

  CDD

  0  0  0  0  0  0            999 V2000
M  END
> <Molecule Name>
CVD-0012154

> <SMILES>
OCC1OC(C(O)C1O)n1ccc(=S)n(-c2c[nH]nc2CCl)c1=O

$$$$

  CDD

  0  0  0  0  0  0            999 V2000
M  END
> <Molecule Name>
CVD-0012153

> <SMILES>
ClCc1ncc(NC2CCOC2=O)[nH]1

$$$$

  CDD

  0  0  0  0  0  0            999 V2000
M  END
> <Molecule Name>
CVD-0012152

> <SMILES>
COC(=O)C(Cc1c[nH]cn1)Nc1cnc(CCl)[nH]1

$$$$

  CDD

  0  0  0  0  0  0            999 V2000
M  END
> <Molecule Name>
CVD-0012151

> <SMILES>
NCc1ccc(CNc2cnc(CCl)[nH]2)cc1

$$$$

  CDD

  0  0  0  0  0  0            999 V2000
M  END
> <Molecule Name>
CVD-0012150

> <SMILES>
CCOC(=O)C(CCSC)Nc1cnc(CCl)[nH]1

$$$$

  CDD

  0  0  0  0  0  0            999 V2000
M  END
> <Molecule Name>
CVD-0012149

> <SMILES>
CN(C)CCN(Cc1ccccc1)c1cnc(CCl)[nH]1

$$$$

  CDD

  0  0  0  0  0  0            999 V2000
M  END
> <Molecule Name>
CVD-0012148

> <SMILES>
COC(=O)C(Nc1cnc(CCl)[nH]1)c1ccccc1

$$$$

  CDD

  0  0  0  0  0  0            999 V2000
M  END
> <Molecule Name>
CVD-0012147

> <SMILES>
COc1ccc(CNc2cnc(CCl)[nH]2)c(OC)c1

$$$$

  CDD

  0  0  0  0  0  0            999 V2000
M  END
> <Molecule Name>
CVD-0012146

> <SMILES>
Oc1ccc(CNc2cnc(CCl)[nH]2)cc1O

$$$$

  CDD

  0  0  0  0  0  0            999 V2000
M  END
> <Molecule Name>
CVD-0012145

> <SMILES>
CC(=O)N(CC(N)=O)c1cnc(CCl)[nH]1

$$$$

  CDD

  0  0  0  0  0  0            999 V2000
M  END
> <Molecule Name>
CVD-0012144

> <SMILES>
OCCC(Nc1cnc(CCl)[nH]1)C(O)=O

$$$$

  CDD

  0  0  0  0  0  0            999 V2000
M  END
> <Molecule Name>
CVD-0012143

> <SMILES>
ClCc1ncc(NCCBr)[nH]1

$$$$

  CDD

  0  0  0  0  0  0            999 V2000
M  END
> <Molecule Name>
CVD-0012142

> <SMILES>
NCCCCCCCCNc1cnc(CCl)[nH]1

$$$$

  CDD

  0  0  0  0  0  0            999 V2000
M  END
> <Molecule Name>
CVD-0012141

> <SMILES>
Fc1cn(-c2cnc(CCl)[nH]2)c(=O)[nH]c1=O

$$$$

  CDD

  0  0  0  0  0  0            999 V2000
M  END
> <Molecule Name>
CVD-0012140

> <SMILES>
C[S+]([O-])CCC(Nc1cnc(CCl)[nH]1)C(O)=O

$$$$

  CDD

  0  0  0  0  0  0            999 V2000
M  END
> <Molecule Name>
CVD-0012139

> <SMILES>
COC(=O)CNc1cnc(CCl)[nH]1

$$$$

  CDD

  0  0  0  0  0  0            999 V2000
M  END
> <Molecule Name>
CVD-0012138

> <SMILES>
OC1CCN(C1C(O)=O)c1cnc(CCl)[nH]1

$$$$

  CDD

  0  0  0  0  0  0            999 V2000
M  END
> <Molecule Name>
CVD-0012137

> <SMILES>
CCCCOC(=O)C1CCC(=O)N1c1cnc(CCl)[nH]1

$$$$

  CDD

  0  0  0  0  0  0            999 V2000
M  END
> <Molecule Name>
CVD-0012136

> <SMILES>
CC(Nc1cnc(CCl)[nH]1)C(O)c1ccc(O)c(O)c1

$$$$

  CDD

  0  0  0  0  0  0            999 V2000
M  END
> <Molecule Name>
CVD-0012135

> <SMILES>
CCOC(=O)CN(C(C)=O)c1cnc(CCl)[nH]1

$$$$

  CDD

  0  0  0  0  0  0            999 V2000
M  END
> <Molecule Name>
CVD-0012134

> <SMILES>
COc1cc(CCNc2cnc(CCl)[nH]2)ccc1O

$$$$

  CDD

  0  0  0  0  0  0            999 V2000
M  END
> <Molecule Name>
CVD-0012133

> <SMILES>
OCC1CCCN1c1cnc(CCl)[nH]1

$$$$

  CDD

  0  0  0  0  0  0            999 V2000
M  END
> <Molecule Name>
CVD-0012132

> <SMILES>
CC(Nc1cnc(CCl)[nH]1)C(O)=O

$$$$

  CDD

  0  0  0  0  0  0            999 V2000
M  END
> <Molecule Name>
CVD-0012131

> <SMILES>
OCCOCCN1CCN(CC1)c1cnc(CCl)[nH]1

$$$$

  CDD

  0  0  0  0  0  0            999 V2000
M  END
> <Molecule Name>
CVD-0012130

> <SMILES>
Cc1ccc(cc1)S(=O)(=O)N(CC(O)=O)c1cnc(CCl)[nH]1

$$$$

  CDD

  0  0  0  0  0  0            999 V2000
M  END
> <Molecule Name>
CVD-0012129

> <SMILES>
ClCc1ncc(NCc2cccnc2)[nH]1

$$$$

  CDD

  0  0  0  0  0  0            999 V2000
M  END
> <Molecule Name>
CVD-0012128

> <SMILES>
ClCc1ncc([nH]1)N1C(=O)COc2cccnc12

$$$$

  CDD

  0  0  0  0  0  0            999 V2000
M  END
> <Molecule Name>
CVD-0012127

> <SMILES>
OC(=O)CNCCN(CC(O)=O)c1cnc(CCl)[nH]1

$$$$

  CDD

  0  0  0  0  0  0            999 V2000
M  END
> <Molecule Name>
CVD-0012126

> <SMILES>
ClCc1ncc(NCc2nc3ccccc3[nH]2)[nH]1

$$$$

  CDD

  0  0  0  0  0  0            999 V2000
M  END
> <Molecule Name>
CVD-0012125

> <SMILES>
CC(Nc1cnc(CCl)[nH]1)C(O)c1ccc(O)cc1

$$$$

  CDD

  0  0  0  0  0  0            999 V2000
M  END
> <Molecule Name>
CVD-0012124

> <SMILES>
ClCc1ncc(NC(C#N)c2ccccc2)[nH]1

$$$$

  CDD

  0  0  0  0  0  0            999 V2000
M  END
> <Molecule Name>
CVD-0012123

> <SMILES>
NC(C#N)C(Nc1cnc(CCl)[nH]1)C#N

$$$$

  CDD

  0  0  0  0  0  0            999 V2000
M  END
> <Molecule Name>
CVD-0012122

> <SMILES>
CC(=O)N(CC(O)=O)c1cnc(CCl)[nH]1

$$$$

  CDD

  0  0  0  0  0  0            999 V2000
M  END
> <Molecule Name>
CVD-0012121

> <SMILES>
COC(=O)CN(C=O)c1cnc(CCl)[nH]1

$$$$

  CDD

  0  0  0  0  0  0            999 V2000
M  END
> <Molecule Name>
CVD-0012120

> <SMILES>
COC(=O)CCC(Nc1cnc(CCl)[nH]1)C(O)=O

$$$$

  CDD

  0  0  0  0  0  0            999 V2000
M  END
> <Molecule Name>
CVD-0012119

> <SMILES>
ON(Cc1cccnc1)c1cnc(CCl)[nH]1

$$$$

  CDD

  0  0  0  0  0  0            999 V2000
M  END
> <Molecule Name>
CVD-0012118

> <SMILES>
CCOC(=O)Cc1csc(Nc2cnc(CCl)[nH]2)n1

$$$$

  CDD

  0  0  0  0  0  0            999 V2000
M  END
> <Molecule Name>
CVD-0012117

> <SMILES>
CCNCCCCN(CC)c1cnc(CCl)[nH]1

$$$$

  CDD

  0  0  0  0  0  0            999 V2000
M  END
> <Molecule Name>
CVD-0012116

> <SMILES>
OC(=O)C(Cc1c[nH]cn1)Nc1cnc(CCl)[nH]1

$$$$

  CDD

  0  0  0  0  0  0            999 V2000
M  END
> <Molecule Name>
CVD-0012115

> <SMILES>
OC(=O)CCC(=O)CNc1cnc(CCl)[nH]1

$$$$

  CDD

  0  0  0  0  0  0            999 V2000
M  END
> <Molecule Name>
CVD-0012114

> <SMILES>
NC(CCOCCNc1cnc(CCl)[nH]1)C(O)=O

$$$$

  CDD

  0  0  0  0  0  0            999 V2000
M  END
> <Molecule Name>
CVD-0012113

> <SMILES>
COCC1CCCN1c1cnc(CCl)[nH]1

$$$$

  CDD

  0  0  0  0  0  0            999 V2000
M  END
> <Molecule Name>
CVD-0012112

> <SMILES>
OC(=O)C(Cc1cc(I)c(O)c(I)c1)Nc1cnc(CCl)[nH]1

$$$$

  CDD

  0  0  0  0  0  0            999 V2000
M  END
> <Molecule Name>
CVD-0012111

> <SMILES>
OC(=O)CCCCCCCNc1cnc(CCl)[nH]1

$$$$

  CDD

  0  0  0  0  0  0            999 V2000
M  END
> <Molecule Name>
CVD-0012110

> <SMILES>
OCC1CCC(=O)N1c1cnc(CCl)[nH]1

$$$$

  CDD

  0  0  0  0  0  0            999 V2000
M  END
> <Molecule Name>
CVD-0012109

> <SMILES>
ClCc1ncc([nH]1)N1CC(=O)C(=O)NC1=O

$$$$

  CDD

  0  0  0  0  0  0            999 V2000
M  END
> <Molecule Name>
CVD-0012108

> <SMILES>
OS(=O)(=O)OCCNc1cnc(CCl)[nH]1

$$$$

  CDD

  0  0  0  0  0  0            999 V2000
M  END
> <Molecule Name>
CVD-0012107

> <SMILES>
Oc1cc(O)c(CCNc2cnc(CCl)[nH]2)cc1O

$$$$

  CDD

  0  0  0  0  0  0            999 V2000
M  END
> <Molecule Name>
CVD-0012106

> <SMILES>
NC(=N)NCCCCC(Nc1cnc(CCl)[nH]1)C(O)=O

$$$$

  CDD

  0  0  0  0  0  0            999 V2000
M  END
> <Molecule Name>
CVD-0012105

> <SMILES>
ON(C(C#N)c1ccccc1)c1cnc(CCl)[nH]1

$$$$

  CDD

  0  0  0  0  0  0            999 V2000
M  END
> <Molecule Name>
CVD-0012104

> <SMILES>
Nc1ccc(CC(Nc2cnc(CCl)[nH]2)C(O)=O)cc1

$$$$

  CDD

  0  0  0  0  0  0            999 V2000
M  END
> <Molecule Name>
CVD-0012103

> <SMILES>
OC(=O)C(Nc1cnc(CCl)[nH]1)c1ccccc1

$$$$

  CDD

  0  0  0  0  0  0            999 V2000
M  END
> <Molecule Name>
CVD-0012102

> <SMILES>
OC(=O)CNC(=O)CNc1cnc(CCl)[nH]1

$$$$

  CDD

  0  0  0  0  0  0            999 V2000
M  END
> <Molecule Name>
CVD-0012101

> <SMILES>
CCOC(OCC)C(=O)Nc1cnc(CCl)[nH]1

$$$$

  CDD

  0  0  0  0  0  0            999 V2000
M  END
> <Molecule Name>
CVD-0012100

> <SMILES>
CCC(C)C(Nc1cnc(CCl)[nH]1)C(O)=O

$$$$

  CDD

  0  0  0  0  0  0            999 V2000
M  END
> <Molecule Name>
CVD-0012099

> <SMILES>
OC(=O)CCC(CC(O)=O)Nc1cnc(CCl)[nH]1

$$$$

  CDD

  0  0  0  0  0  0            999 V2000
M  END
> <Molecule Name>
CVD-0012098

> <SMILES>
NCCNCCNCCNc1cnc(CCl)[nH]1

$$$$

  CDD

  0  0  0  0  0  0            999 V2000
M  END
> <Molecule Name>
CVD-0012097

> <SMILES>
NS(=O)(=O)c1ccc(CCNc2cnc(CCl)[nH]2)cc1

$$$$

  CDD

  0  0  0  0  0  0            999 V2000
M  END
> <Molecule Name>
CVD-0012096

> <SMILES>
ClCc1ncc([nH]1)N1CCC(CC1)C1CCNCC1

$$$$

  CDD

  0  0  0  0  0  0            999 V2000
M  END
> <Molecule Name>
CVD-0012095

> <SMILES>
OC(=O)C1C2CC2CN1c1cnc(CCl)[nH]1

$$$$

  CDD

  0  0  0  0  0  0            999 V2000
M  END
> <Molecule Name>
CVD-0012094

> <SMILES>
CCC(Nc1cnc(CCl)[nH]1)C(O)=O

$$$$

  CDD

  0  0  0  0  0  0            999 V2000
M  END
> <Molecule Name>
CVD-0012093

> <SMILES>
CCCCN(c1cnc(CCl)[nH]1)S(=O)(=O)c1cccc(N)c1

$$$$

  CDD

  0  0  0  0  0  0            999 V2000
M  END
> <Molecule Name>
CVD-0012092

> <SMILES>
OC(=O)CN(Cc1ccccc1)c1cnc(CCl)[nH]1

$$$$

  CDD

  0  0  0  0  0  0            999 V2000
M  END
> <Molecule Name>
CVD-0012091

> <SMILES>
CC(O)C(Nc1cnc(CCl)[nH]1)C(O)=O

$$$$

  CDD

  0  0  0  0  0  0            999 V2000
M  END
> <Molecule Name>
CVD-0012090

> <SMILES>
ClCc1ncc(NC2=NC(=O)CS2)[nH]1

$$$$

  CDD

  0  0  0  0  0  0            999 V2000
M  END
> <Molecule Name>
CVD-0012089

> <SMILES>
CC(C)C(Nc1cnc(CCl)[nH]1)C(O)=O

$$$$

  CDD

  0  0  0  0  0  0            999 V2000
M  END
> <Molecule Name>
CVD-0012088

> <SMILES>
CC(C(Nc1cnc(CCl)[nH]1)C(O)=O)c1ccccc1

$$$$

  CDD

  0  0  0  0  0  0            999 V2000
M  END
> <Molecule Name>
CVD-0012087

> <SMILES>
Cc1ncc(CO)c(CNc2cnc(CCl)[nH]2)c1O

$$$$

  CDD

  0  0  0  0  0  0            999 V2000
M  END
> <Molecule Name>
CVD-0012086

> <SMILES>
Oc1cc(CNc2cnc(CCl)[nH]2)on1

$$$$

  CDD

  0  0  0  0  0  0            999 V2000
M  END
> <Molecule Name>
CVD-0012085

> <SMILES>
COC(=O)CCC(=O)CNc1cnc(CCl)[nH]1

$$$$

  CDD

  0  0  0  0  0  0            999 V2000
M  END
> <Molecule Name>
CVD-0012084

> <SMILES>
CCOC(=O)CN(Cc1ccccc1)c1cnc(CCl)[nH]1

$$$$

  CDD

  0  0  0  0  0  0            999 V2000
M  END
> <Molecule Name>
CVD-0012083

> <SMILES>
ClCc1ncc([nH]1)N(C=O)C(NC=O)NC=O

$$$$

  CDD

  0  0  0  0  0  0            999 V2000
M  END
> <Molecule Name>
CVD-0012082

> <SMILES>
CCCC(C(=O)Nc1cnc(CCl)[nH]1)c1ccc(O)c(O)c1

$$$$

  CDD

  0  0  0  0  0  0            999 V2000
M  END
> <Molecule Name>
CVD-0012081

> <SMILES>
OC(=O)C(Nc1cnc(CCl)[nH]1)c1cccs1

$$$$

  CDD

  0  0  0  0  0  0            999 V2000
M  END
> <Molecule Name>
CVD-0012080

> <SMILES>
CCOC(=O)CN(C(=O)CCl)c1cnc(CCl)[nH]1

$$$$

  CDD

  0  0  0  0  0  0            999 V2000
M  END
> <Molecule Name>
CVD-0012079

> <SMILES>
OC(=O)CN(CC(O)=O)c1cnc(CCl)[nH]1

$$$$

  CDD

  0  0  0  0  0  0            999 V2000
M  END
> <Molecule Name>
CVD-0012078

> <SMILES>
CC(C)CC(Nc1cnc(CCl)[nH]1)C(=O)NC(C)C(O)=O

$$$$

  CDD

  0  0  0  0  0  0            999 V2000
M  END
> <Molecule Name>
CVD-0012077

> <SMILES>
COC(=O)CN(C(SC)SC)c1cnc(CCl)[nH]1

$$$$

  CDD

  0  0  0  0  0  0            999 V2000
M  END
> <Molecule Name>
CVD-0012076

> <SMILES>
CN(C(=O)C(CCCCN)NC(C)=O)c1cnc(CCl)[nH]1

$$$$

  CDD

  0  0  0  0  0  0            999 V2000
M  END
> <Molecule Name>
CVD-0012075

> <SMILES>
CCCCCCC(Nc1cnc(CCl)[nH]1)C(O)=O

$$$$

  CDD

  0  0  0  0  0  0            999 V2000
M  END
> <Molecule Name>
CVD-0012074

> <SMILES>
CCCCC(Nc1cnc(CCl)[nH]1)C(O)=O

$$$$

  CDD

  0  0  0  0  0  0            999 V2000
M  END
> <Molecule Name>
CVD-0012073

> <SMILES>
CCCC(Nc1cnc(CCl)[nH]1)C(O)=O

$$$$

  CDD

  0  0  0  0  0  0            999 V2000
M  END
> <Molecule Name>
CVD-0012072

> <SMILES>
OC(=O)C(Nc1cnc(CCl)[nH]1)c1ccccc1F

$$$$

  CDD

  0  0  0  0  0  0            999 V2000
M  END
> <Molecule Name>
CVD-0012071

> <SMILES>
ClCc1ncc([nH]1)N1CCCC1C(=O)OCc1ccccc1

$$$$

  CDD

  0  0  0  0  0  0            999 V2000
M  END
> <Molecule Name>
CVD-0012070

> <SMILES>
ClCc1ncc([nH]1)N(CCC#N)Cc1cccnc1

$$$$

  CDD

  0  0  0  0  0  0            999 V2000
M  END
> <Molecule Name>
CVD-0012069

> <SMILES>
CSCCC(Nc1cnc(CCl)[nH]1)C(O)=O

$$$$

  CDD

  0  0  0  0  0  0            999 V2000
M  END
> <Molecule Name>
CVD-0012068

> <SMILES>
CSCC(Nc1cnc(CCl)[nH]1)C(O)=O

$$$$

  CDD

  0  0  0  0  0  0            999 V2000
M  END
> <Molecule Name>
CVD-0012067

> <SMILES>
NC(=N)SCCCSC(=N)Nc1cnc(CCl)[nH]1

$$$$

  CDD

  0  0  0  0  0  0            999 V2000
M  END
> <Molecule Name>
CVD-0012066

> <SMILES>
CCOC(=O)C(Nc1cnc(CCl)[nH]1)C(=O)OCC

$$$$

  CDD

  0  0  0  0  0  0            999 V2000
M  END
> <Molecule Name>
CVD-0012065

> <SMILES>
COC(=O)C(Nc1cnc(CCl)[nH]1)C(=O)OC

$$$$

  CDD

  0  0  0  0  0  0            999 V2000
M  END
> <Molecule Name>
CVD-0012064

> <SMILES>
CC(C)CC(Nc1cnc(CCl)[nH]1)C(N)=O

$$$$

  CDD

  0  0  0  0  0  0            999 V2000
M  END
> <Molecule Name>
CVD-0012063

> <SMILES>
OS(=O)(=O)CCCSC(=N)Nc1cnc(CCl)[nH]1

$$$$

  CDD

  0  0  0  0  0  0            999 V2000
M  END
> <Molecule Name>
CVD-0012062

> <SMILES>
CCSCCC(Nc1cnc(CCl)[nH]1)C(O)=O

$$$$

  CDD

  0  0  0  0  0  0            999 V2000
M  END
> <Molecule Name>
CVD-0012061

> <SMILES>
CSCCC(CO)Nc1cnc(CCl)[nH]1

$$$$

  CDD

  0  0  0  0  0  0            999 V2000
M  END
> <Molecule Name>
CVD-0012060

> <SMILES>
CC(C)CC(Nc1cnc(CCl)[nH]1)C(O)=O

$$$$

  CDD

  0  0  0  0  0  0            999 V2000
M  END
> <Molecule Name>
CVD-0012059

> <SMILES>
CC(=O)CC(=O)N(CC(O)=O)c1cnc(CCl)[nH]1

$$$$

  CDD

  0  0  0  0  0  0            999 V2000
M  END
> <Molecule Name>
CVD-0012058

> <SMILES>
Cn1cncc1CC(Nc1cnc(CCl)[nH]1)C(O)=O

$$$$

  CDD

  0  0  0  0  0  0            999 V2000
M  END
> <Molecule Name>
CVD-0012057

> <SMILES>
NC(=N)SCCNc1cnc(CCl)[nH]1

$$$$

  CDD

  0  0  0  0  0  0            999 V2000
M  END
> <Molecule Name>
CVD-0012056

> <SMILES>
OC(=O)CN(C(=O)CCc1ccco1)c1cnc(CCl)[nH]1

$$$$

  CDD

  0  0  0  0  0  0            999 V2000
M  END
> <Molecule Name>
CVD-0012055

> <SMILES>
OC(=O)CSCC(Nc1cnc(CCl)[nH]1)C(O)=O

$$$$

  CDD

  0  0  0  0  0  0            999 V2000
M  END
> <Molecule Name>
CVD-0012054

> <SMILES>
COC(=O)CN(C(=O)CCc1ccco1)c1cnc(CCl)[nH]1

$$$$

  CDD

  0  0  0  0  0  0            999 V2000
M  END
> <Molecule Name>
CVD-0012053

> <SMILES>
Clc1cccc(CC(=O)Nc2cncc3[nH]c(=O)[nH]c23)c1

$$$$

  CDD

  0  0  0  0  0  0            999 V2000
M  END
> <Molecule Name>
CVD-0012052

> <SMILES>
COc1cc(OC)nc(n1)C#N

$$$$

  CDD

  0  0  0  0  0  0            999 V2000
M  END
> <Molecule Name>
CVD-0012051

> <SMILES>
O=C(Nc1cccnc1)NC1(CC1)C#Cc1c[nH]cn1

$$$$

  CDD

  0  0  0  0  0  0            999 V2000
M  END
> <Molecule Name>
CVD-0012050

> <SMILES>
CC(C)(C)c1ccc(cc1)N(C(C(=O)NCCc1cccc(F)c1)c1ccccc1)C(=O)c1ccco1

$$$$

  CDD

  0  0  0  0  0  0            999 V2000
M  END
> <Molecule Name>
CVD-0012049

> <SMILES>
Clc1cccc(CC(=O)Nc2cncc3ncccc23)c1

$$$$

  CDD

  0  0  0  0  0  0            999 V2000
M  END
> <Molecule Name>
CVD-0012048

> <SMILES>
CC1(CCNC1=O)NC(=O)Cc1cccc(Cl)c1

$$$$

  CDD

  0  0  0  0  0  0            999 V2000
M  END
> <Molecule Name>
CVD-0012047

> <SMILES>
CC1CCNC(=O)C1NC(=O)Cc1cccc(Cl)c1

$$$$

  CDD

  0  0  0  0  0  0            999 V2000
M  END
> <Molecule Name>
CVD-0012046

> <SMILES>
O[Si](O)(Cc1cncc(Cl)c1)c1cccc2[nH]ccc12

$$$$

  CDD

  0  0  0  0  0  0            999 V2000
M  END
> <Molecule Name>
CVD-0012045

> <SMILES>
OP(=O)(Cc1cncc(Cl)c1)c1cccc2[nH]ccc12

$$$$

  CDD

  0  0  0  0  0  0            999 V2000
M  END
> <Molecule Name>
CVD-0012044

> <SMILES>
FC(C(=O)c1cccc2[nH]ccc12)c1cncc(Cl)c1

$$$$

  CDD

  0  0  0  0  0  0            999 V2000
M  END
> <Molecule Name>
CVD-0012043

> <SMILES>
FC(F)(C(=O)c1cccc2[nH]ccc12)c1cncc(Cl)c1

$$$$

  CDD

  0  0  0  0  0  0            999 V2000
M  END
> <Molecule Name>
CVD-0012042

> <SMILES>
Clc1cccc(c1)[C@@H]1CC[C@H](C#N)N(C1=O)c1cncc2ccccc12

$$$$

  CDD

  0  0  0  0  0  0            999 V2000
M  END
> <Molecule Name>
CVD-0012041

> <SMILES>
Clc1cccc(c1)N1CCN(C1=O)c1cncc2ccccc12

$$$$

  CDD

  0  0  0  0  0  0            999 V2000
M  END
> <Molecule Name>
CVD-0012040

> <SMILES>
Clc1cccc(c1)N1CCCN(C1=O)c1cncc2ccccc12

$$$$

  CDD

  0  0  0  0  0  0            999 V2000
M  END
> <Molecule Name>
CVD-0012039

> <SMILES>
Clc1cccc(CC(=O)Nc2cncn2C2CC2)c1

$$$$

  CDD

  0  0  0  0  0  0            999 V2000
M  END
> <Molecule Name>
CVD-0012038

> <SMILES>
Cn1cncc1NC(=O)Cc1cccc(Cl)c1

$$$$

  CDD

  0  0  0  0  0  0            999 V2000
M  END
> <Molecule Name>
CVD-0012037

> <SMILES>
Cc1cncc(NC(=O)Cc2cccc(Cl)c2)c1C

$$$$

  CDD

  0  0  0  0  0  0            999 V2000
M  END
> <Molecule Name>
CVD-0012036

> <SMILES>
Clc1cccc(CC(=O)Nc2cnc3ccccn23)c1

$$$$

  CDD

  0  0  0  0  0  0            999 V2000
M  END
> <Molecule Name>
CVD-0012035

> <SMILES>
FC(F)(F)C(C(=O)c1cccc2[nH]ccc12)c1cncc(Cl)c1

$$$$

  CDD

  0  0  0  0  0  0            999 V2000
M  END
> <Molecule Name>
CVD-0012034

> <SMILES>
[O-][S+](Nc1cncc(Cl)c1)c1cccc2[nH]ccc12

$$$$

  CDD

  0  0  0  0  0  0            999 V2000
M  END
> <Molecule Name>
CVD-0012033

> <SMILES>
OB(Cc1cncc(Cl)c1)c1cccc2[nH]ccc12

$$$$

  CDD

  0  0  0  0  0  0            999 V2000
M  END
> <Molecule Name>
CVD-0012032

> <SMILES>
[O-][S+](Cc1cncc(Cl)c1)c1cccc2[nH]ccc12

$$$$

  CDD

  0  0  0  0  0  0            999 V2000
M  END
> <Molecule Name>
CVD-0012031

> <SMILES>
OC(Cc1cncc(Cl)c1)c1cccc2[nH]ccc12

$$$$

  CDD

  0  0  0  0  0  0            999 V2000
M  END
> <Molecule Name>
CVD-0012030

> <SMILES>
NCCCCn1ccn(CCCCN)[c]1=[Au+]Cl

$$$$

  CDD

  0  0  0  0  0  0            999 V2000
M  END
> <Molecule Name>
CVD-0012029

> <SMILES>
Cl[Au+]=[c]1n(ccn1C(=O)CC#N)C(=O)CC#N

$$$$

  CDD

  0  0  0  0  0  0            999 V2000
M  END
> <Molecule Name>
CVD-0012028

> <SMILES>
CCOC(=O)C(C)n1ccn(C(C)C(=O)OCC)[c]1=[Au+]Cl

$$$$

  CDD

  0  0  0  0  0  0            999 V2000
M  END
> <Molecule Name>
CVD-0012027

> <SMILES>
Cl[Au+]=[c]1n(CC(=O)c2ccc(Br)cc2)ccn1CC(=O)c1ccc(Br)cc1

$$$$

  CDD

  0  0  0  0  0  0            999 V2000
M  END
> <Molecule Name>
CVD-0012026

> <SMILES>
NC(=O)n1ccn(C(N)=O)[c]1=[Au+]Cl

$$$$

  CDD

  0  0  0  0  0  0            999 V2000
M  END
> <Molecule Name>
CVD-0012025

> <SMILES>
OC(=O)CNC(=N)n1ccn(C(=N)NCC(O)=O)[c]1=[Au+]Cl

$$$$

  CDD

  0  0  0  0  0  0            999 V2000
M  END
> <Molecule Name>
CVD-0012024

> <SMILES>
OCCCCn1ccn(CCCCO)[c]1=[Au+]Cl

$$$$

  CDD

  0  0  0  0  0  0            999 V2000
M  END
> <Molecule Name>
CVD-0012023

> <SMILES>
Nc1ccc(CCn2ccn(CCc3ccc(N)cc3)[c]2=[Au+]Cl)cc1

$$$$

  CDD

  0  0  0  0  0  0            999 V2000
M  END
> <Molecule Name>
CVD-0012022

> <SMILES>
CC(C)CC(C(N)=O)n1ccn(C(CC(C)C)C(N)=O)[c]1=[Au+]Cl

$$$$

  CDD

  0  0  0  0  0  0            999 V2000
M  END
> <Molecule Name>
CVD-0012021

> <SMILES>
CC(C)(C)OC(=O)Cn1ccn(CC(=O)OC(C)(C)C)[c]1=[Au+]Cl

$$$$

  CDD

  0  0  0  0  0  0            999 V2000
M  END
> <Molecule Name>
CVD-0012020

> <SMILES>
Cl[Au+]=[c]1n(CC#N)ccn1CC#N

$$$$

  CDD

  0  0  0  0  0  0            999 V2000
M  END
> <Molecule Name>
CVD-0012019

> <SMILES>
COC(=O)C(C)n1ccn(C(C)C(=O)OC)[c]1=[Au+]Cl

$$$$

  CDD

  0  0  0  0  0  0            999 V2000
M  END
> <Molecule Name>
CVD-0012018

> <SMILES>
COc1ccc(Cn2ccn(Cc3ccc(OC)cc3)[c]2=[Au+]Cl)cc1

$$$$

  CDD

  0  0  0  0  0  0            999 V2000
M  END
> <Molecule Name>
CVD-0012017

> <SMILES>
COc1ccc(Cn2ccn(Cc3ccc(OC)c(OC)c3)[c]2=[Au+]Cl)cc1OC

$$$$

  CDD

  0  0  0  0  0  0            999 V2000
M  END
> <Molecule Name>
CVD-0012016

> <SMILES>
COc1cccc(Cn2ccn(Cc3cccc(OC)c3OC)[c]2=[Au+]Cl)c1OC

$$$$

  CDD

  0  0  0  0  0  0            999 V2000
M  END
> <Molecule Name>
CVD-0012015

> <SMILES>
NC(=O)CC(=O)n1ccn(C(=O)CC(N)=O)[c]1=[Au+]Cl

$$$$

  CDD

  0  0  0  0  0  0            999 V2000
M  END
> <Molecule Name>
CVD-0012014

> <SMILES>
COc1cc(Cn2ccn(Cc3ccc(O)c(OC)c3)[c]2=[Au+]Cl)ccc1O

$$$$

  CDD

  0  0  0  0  0  0            999 V2000
M  END
> <Molecule Name>
CVD-0012013

> <SMILES>
COC(=O)Cn1ccn(CC(=O)OC)[c]1=[Au+]Cl

$$$$

  CDD

  0  0  0  0  0  0            999 V2000
M  END
> <Molecule Name>
CVD-0012012

> <SMILES>
Cl[Au+]=[c]1n(CCCN2CCOCC2)ccn1CCCN1CCOCC1

$$$$

  CDD

  0  0  0  0  0  0            999 V2000
M  END
> <Molecule Name>
CVD-0012011

> <SMILES>
OS(=O)(=O)Cn1ccn(CS(O)(=O)=O)[c]1=[Au+]Cl

$$$$

  CDD

  0  0  0  0  0  0            999 V2000
M  END
> <Molecule Name>
CVD-0012010

> <SMILES>
Cl[Au+]=[c]1n(CCc2ccccn2)ccn1CCc1ccccn1

$$$$

  CDD

  0  0  0  0  0  0            999 V2000
M  END
> <Molecule Name>
CVD-0012009

> <SMILES>
CCC(CCN)n1ccn(C(CC)CCN)[c]1=[Au+]Cl

$$$$

  CDD

  0  0  0  0  0  0            999 V2000
M  END
> <Molecule Name>
CVD-0012008

> <SMILES>
COC(=O)CC(C)n1ccn(C(C)CC(=O)OC)[c]1=[Au+]Cl

$$$$

  CDD

  0  0  0  0  0  0            999 V2000
M  END
> <Molecule Name>
CVD-0012007

> <SMILES>
OC(=O)c1ccc(Cn2ccn(Cc3ccc(cc3)C(O)=O)[c]2=[Au+]Cl)cc1

$$$$

  CDD

  0  0  0  0  0  0            999 V2000
M  END
> <Molecule Name>
CVD-0012006

> <SMILES>
CC(=O)CC(=O)n1ccn(C(=O)CC(C)=O)[c]1=[Au+]Cl

$$$$

  CDD

  0  0  0  0  0  0            999 V2000
M  END
> <Molecule Name>
CVD-0012005

> <SMILES>
Cl[Au+]=[c]1n(Cc2ccccn2)ccn1Cc1ccccn1

$$$$

  CDD

  0  0  0  0  0  0            999 V2000
M  END
> <Molecule Name>
CVD-0012004

> <SMILES>
CC(CCCC(C)(C)O)n1ccn(C(C)CCCC(C)(C)O)[c]1=[Au+]Cl

$$$$

  CDD

  0  0  0  0  0  0            999 V2000
M  END
> <Molecule Name>
CVD-0012003

> <SMILES>
Cl[Au+]=[c]1n(Cc2cccnc2)ccn1Cc1cccnc1

$$$$

  CDD

  0  0  0  0  0  0            999 V2000
M  END
> <Molecule Name>
CVD-0012002

> <SMILES>
COc1cccc(CCn2ccn(CCc3cccc(OC)c3)[c]2=[Au+]Cl)c1

$$$$

  CDD

  0  0  0  0  0  0            999 V2000
M  END
> <Molecule Name>
CVD-0012001

> <SMILES>
OC(=O)Cc1csc(n1)-n1ccn(-c2nc(CC(O)=O)cs2)[c]1=[Au+]Cl

$$$$

  CDD

  0  0  0  0  0  0            999 V2000
M  END
> <Molecule Name>
CVD-0012000

> <SMILES>
CC(=O)NCCn1ccn(CCNC(C)=O)[c]1=[Au+]Cl

$$$$

  CDD

  0  0  0  0  0  0            999 V2000
M  END
> <Molecule Name>
CVD-0011999

> <SMILES>
COC1OC(Cn2ccn(CC3(OC)OC(OC)C=C3)[c]2=[Au+]Cl)(OC)C=C1

$$$$

  CDD

  0  0  0  0  0  0            999 V2000
M  END
> <Molecule Name>
CVD-0011998

> <SMILES>
COC(=O)C(C(C)C)n1ccn(C(C(C)C)C(=O)OC)[c]1=[Au+]Cl

$$$$

  CDD

  0  0  0  0  0  0            999 V2000
M  END
> <Molecule Name>
CVD-0011997

> <SMILES>
Cl[Au+]=[c]1n(ccn1C(=S)CC#N)C(=S)CC#N

$$$$

  CDD

  0  0  0  0  0  0            999 V2000
M  END
> <Molecule Name>
CVD-0011996

> <SMILES>
CC(CO)(CO)n1ccn([c]1=[Au+]Cl)C(C)(CO)CO

$$$$

  CDD

  0  0  0  0  0  0            999 V2000
M  END
> <Molecule Name>
CVD-0011995

> <SMILES>
Cl[Au+]=[c]1n(CCN2CCOCC2)ccn1CCN1CCOCC1

$$$$

  CDD

  0  0  0  0  0  0            999 V2000
M  END
> <Molecule Name>
CVD-0011994

> <SMILES>
CSCC(C(O)=O)n1ccn(C(CSC)C(O)=O)[c]1=[Au+]Cl

$$$$

  CDD

  0  0  0  0  0  0            999 V2000
M  END
> <Molecule Name>
CVD-0011993

> <SMILES>
OC(=O)C(CC=C)n1ccn(C(CC=C)C(O)=O)[c]1=[Au+]Cl

$$$$

  CDD

  0  0  0  0  0  0            999 V2000
M  END
> <Molecule Name>
CVD-0011992

> <SMILES>
OC(=O)C(CCl)n1ccn(C(CCl)C(O)=O)[c]1=[Au+]Cl

$$$$

  CDD

  0  0  0  0  0  0            999 V2000
M  END
> <Molecule Name>
CVD-0011991

> <SMILES>
CC(CC(O)=O)n1ccn(C(C)CC(O)=O)[c]1=[Au+]Cl

$$$$

  CDD

  0  0  0  0  0  0            999 V2000
M  END
> <Molecule Name>
CVD-0011990

> <SMILES>
OC(=O)C1CCC(Cn2ccn(CC3CCC(CC3)C(O)=O)[c]2=[Au+]Cl)CC1

$$$$

  CDD

  0  0  0  0  0  0            999 V2000
M  END
> <Molecule Name>
CVD-0011989

> <SMILES>
Cl[Au+]=[c]1n(Cc2ccco2)ccn1Cc1ccco1

$$$$

  CDD

  0  0  0  0  0  0            999 V2000
M  END
> <Molecule Name>
CVD-0011988

> <SMILES>
CC(O)C(C(O)=O)n1ccn(C(C(C)O)C(O)=O)[c]1=[Au+]Cl

$$$$

  CDD

  0  0  0  0  0  0            999 V2000
M  END
> <Molecule Name>
CVD-0011987

> <SMILES>
OC(C(C(O)=O)n1ccn(C(C(O)c2ccccc2)C(O)=O)[c]1=[Au+]Cl)c1ccccc1

$$$$

  CDD

  0  0  0  0  0  0            999 V2000
M  END
> <Molecule Name>
CVD-0011986

> <SMILES>
CC(C)(CO)n1ccn([c]1=[Au+]Cl)C(C)(C)CO

$$$$

  CDD

  0  0  0  0  0  0            999 V2000
M  END
> <Molecule Name>
CVD-0011985

> <SMILES>
OC(=O)Cn1ccn(CC(O)=O)[c]1=[Au+]Cl

$$$$

  CDD

  0  0  0  0  0  0            999 V2000
M  END
> <Molecule Name>
CVD-0011984

> <SMILES>
OS(=O)(=O)CCCn1ccn(CCCS(O)(=O)=O)[c]1=[Au+]Cl

$$$$

  CDD

  0  0  0  0  0  0            999 V2000
M  END
> <Molecule Name>
CVD-0011983

> <SMILES>
NC(C#N)C(C#N)n1ccn(C(C#N)C(N)C#N)[c]1=[Au+]Cl

$$$$

  CDD

  0  0  0  0  0  0            999 V2000
M  END
> <Molecule Name>
CVD-0011982

> <SMILES>
Cl[Au+]=[c]1n(CCCn2ccnc2)ccn1CCCn1ccnc1

$$$$

  CDD

  0  0  0  0  0  0            999 V2000
M  END
> <Molecule Name>
CVD-0011981

> <SMILES>
OCC(c1ccccc1)n1ccn(C(CO)c2ccccc2)[c]1=[Au+]Cl

$$$$

  CDD

  0  0  0  0  0  0            999 V2000
M  END
> <Molecule Name>
CVD-0011980

> <SMILES>
COc1ccc2[nH]cc(CCn3ccn(CCc4c[nH]c5ccc(OC)cc45)[c]3=[Au+]Cl)c2c1

$$$$

  CDD

  0  0  0  0  0  0            999 V2000
M  END
> <Molecule Name>
CVD-0011979

> <SMILES>
COc1cc(Cn2ccn(Cc3cc(OC)cc(OC)c3)[c]2=[Au+]Cl)cc(OC)c1

$$$$

  CDD

  0  0  0  0  0  0            999 V2000
M  END
> <Molecule Name>
CVD-0011978

> <SMILES>
Cl[Au+]=[c]1n(ccn1C(CC#N)C(C#N)C#N)C(CC#N)C(C#N)C#N

$$$$

  CDD

  0  0  0  0  0  0            999 V2000
M  END
> <Molecule Name>
CVD-0011977

> <SMILES>
COc1ccc(cc1)C(=O)Cn1ccn(CC(=O)c2ccc(OC)cc2)[c]1=[Au+]Cl

$$$$

  CDD

  0  0  0  0  0  0            999 V2000
M  END
> <Molecule Name>
CVD-0011976

> <SMILES>
CC(C)CC(C(O)=O)n1ccn(C(CC(C)C)C(O)=O)[c]1=[Au+]Cl

$$$$

  CDD

  0  0  0  0  0  0            999 V2000
M  END
> <Molecule Name>
CVD-0011975

> <SMILES>
Cl[Au+]=[c]1n(Cc2ccc3OCOc3c2)ccn1Cc1ccc2OCOc2c1

$$$$

  CDD

  0  0  0  0  0  0            999 V2000
M  END
> <Molecule Name>
CVD-0011974

> <SMILES>
CCCC(C(O)=O)n1ccn(C(CCC)C(O)=O)[c]1=[Au+]Cl

$$$$

  CDD

  0  0  0  0  0  0            999 V2000
M  END
> <Molecule Name>
CVD-0011973

> <SMILES>
CC(C(O)=O)n1ccn(C(C)C(O)=O)[c]1=[Au+]Cl

$$$$

  CDD

  0  0  0  0  0  0            999 V2000
M  END
> <Molecule Name>
CVD-0011972

> <SMILES>
NCC1CCCC(Cn2ccn(CC3CCCC(CN)C3)[c]2=[Au+]Cl)C1

$$$$

  CDD

  0  0  0  0  0  0            999 V2000
M  END
> <Molecule Name>
CVD-0011971

> <SMILES>
Cl[Au+]=[c]1n(CC2CCNCC2)ccn1CC1CCNCC1

$$$$

  CDD

  0  0  0  0  0  0            999 V2000
M  END
> <Molecule Name>
CVD-0011970

> <SMILES>
CCC(C(O)=O)n1ccn(C(CC)C(O)=O)[c]1=[Au+]Cl

$$$$

  CDD

  0  0  0  0  0  0            999 V2000
M  END
> <Molecule Name>
CVD-0011969

> <SMILES>
Cl[Au+]=[c]1n(CCN2CCNCC2)ccn1CCN1CCNCC1

$$$$

  CDD

  0  0  0  0  0  0            999 V2000
M  END
> <Molecule Name>
CVD-0011968

> <SMILES>
OC(=O)C1(CCCCC1)n1ccn([c]1=[Au+]Cl)C1(CCCCC1)C(O)=O

$$$$

  CDD

  0  0  0  0  0  0            999 V2000
M  END
> <Molecule Name>
CVD-0011967

> <SMILES>
COc1ccc2c(CCn3ccn(CCc4c[nH]c5cc(OC)ccc45)[c]3=[Au+]Cl)c[nH]c2c1

$$$$

  CDD

  0  0  0  0  0  0            999 V2000
M  END
> <Molecule Name>
CVD-0011966

> <SMILES>
CC(C)(C(O)=O)n1ccn([c]1=[Au+]Cl)C(C)(C)C(O)=O

$$$$

  CDD

  0  0  0  0  0  0            999 V2000
M  END
> <Molecule Name>
CVD-0011965

> <SMILES>
Cl[Au+]=[c]1n(CCCN2CCCC2=O)ccn1CCCN1CCCC1=O

$$$$

  CDD

  0  0  0  0  0  0            999 V2000
M  END
> <Molecule Name>
CVD-0011964

> <SMILES>
Cl[Au+]=[c]1n(Cc2nc3ccccc3[nH]2)ccn1Cc1nc2ccccc2[nH]1

$$$$

  CDD

  0  0  0  0  0  0            999 V2000
M  END
> <Molecule Name>
CVD-0011963

> <SMILES>
CC(=O)NCC(=O)n1ccn(C(=O)CNC(C)=O)[c]1=[Au+]Cl

$$$$

  CDD

  0  0  0  0  0  0            999 V2000
M  END
> <Molecule Name>
CVD-0011962

> <SMILES>
NC(=O)C(CO)n1ccn(C(CO)C(N)=O)[c]1=[Au+]Cl

$$$$

  CDD

  0  0  0  0  0  0            999 V2000
M  END
> <Molecule Name>
CVD-0011961

> <SMILES>
Oc1cc(Cn2ccn(Cc3cc(O)no3)[c]2=[Au+]Cl)on1

$$$$

  CDD

  0  0  0  0  0  0            999 V2000
M  END
> <Molecule Name>
CVD-0011960

> <SMILES>
Cn1cncc1CC(C(O)=O)n1ccn(C(Cc2cncn2C)C(O)=O)[c]1=[Au+]Cl

$$$$

  CDD

  0  0  0  0  0  0            999 V2000
M  END
> <Molecule Name>
CVD-0011959

> <SMILES>
OC(=O)C(CCc1ccccc1)n1ccn(C(CCc2ccccc2)C(O)=O)[c]1=[Au+]Cl

$$$$

  CDD

  0  0  0  0  0  0            999 V2000
M  END
> <Molecule Name>
CVD-0011958

> <SMILES>
OC(Cn1ccn(CC(O)c2cccc(O)c2)[c]1=[Au+]Cl)c1cccc(O)c1

$$$$

  CDD

  0  0  0  0  0  0            999 V2000
M  END
> <Molecule Name>
CVD-0011957

> <SMILES>
OC(=O)C1(CC1)n1ccn([c]1=[Au+]Cl)C1(CC1)C(O)=O

$$$$

  CDD

  0  0  0  0  0  0            999 V2000
M  END
> <Molecule Name>
CVD-0011956

> <SMILES>
Oc1ccc(CC(=O)n2ccn(C(=O)Cc3ccc(O)cc3)[c]2=[Au+]Cl)cc1

$$$$

  CDD

  0  0  0  0  0  0            999 V2000
M  END
> <Molecule Name>
CVD-0011955

> <SMILES>
OC(Cn1ccn(CC(O)c2ccc(O)c(O)c2)[c]1=[Au+]Cl)c1ccc(O)c(O)c1

$$$$

  CDD

  0  0  0  0  0  0            999 V2000
M  END
> <Molecule Name>
CVD-0011954

> <SMILES>
CC(C(O)c1ccc(O)c(O)c1)n1ccn(C(C)C(O)c2ccc(O)c(O)c2)[c]1=[Au+]Cl

$$$$

  CDD

  0  0  0  0  0  0            999 V2000
M  END
> <Molecule Name>
CVD-0011953

> <SMILES>
CC(C(O)c1ccc(O)cc1)n1ccn(C(C)C(O)c2ccc(O)cc2)[c]1=[Au+]Cl

$$$$

  CDD

  0  0  0  0  0  0            999 V2000
M  END
> <Molecule Name>
CVD-0011952

> <SMILES>
OC(=O)C1CCC(CC1)n1ccn(C2CCC(CC2)C(O)=O)[c]1=[Au+]Cl

$$$$

  CDD

  0  0  0  0  0  0            999 V2000
M  END
> <Molecule Name>
CVD-0011951

> <SMILES>
Oc1ccc(CCn2ccn(CCc3ccc(O)c(O)c3)[c]2=[Au+]Cl)cc1O

$$$$

  CDD

  0  0  0  0  0  0            999 V2000
M  END
> <Molecule Name>
CVD-0011950

> <SMILES>
Cc1ncc(CO)c(Cn2ccn(Cc3c(CO)cnc(C)c3O)[c]2=[Au+]Cl)c1O

$$$$

  CDD

  0  0  0  0  0  0            999 V2000
M  END
> <Molecule Name>
CVD-0011949

> <SMILES>
Oc1cc(O)c(CCn2ccn(CCc3cc(O)c(O)cc3O)[c]2=[Au+]Cl)cc1O

$$$$

  CDD

  0  0  0  0  0  0            999 V2000
M  END
> <Molecule Name>
CVD-0011948

> <SMILES>
[O-][S+](Cc1cncc2ccccc12)C(CCC1CCCCC1)c1cccc(Cl)c1

$$$$

  CDD

  0  0  0  0  0  0            999 V2000
M  END
> <Molecule Name>
CVD-0011947

> <SMILES>
[O-][S+](Cc1cncc2ccccc12)C(CCc1ccc(F)cc1)c1cccc(Cl)c1

$$$$

  CDD

  0  0  0  0  0  0            999 V2000
M  END
> <Molecule Name>
CVD-0011946

> <SMILES>
[O-][S+](Cc1cncc2ccccc12)C(CCc1cccc(F)c1)c1cccc(Cl)c1

$$$$

  CDD

  0  0  0  0  0  0            999 V2000
M  END
> <Molecule Name>
CVD-0011945

> <SMILES>
Fc1ccc(CCC(C(=O)Nc2cncc3ccccc23)c2cccc(Cl)c2)cc1

$$$$

  CDD

  0  0  0  0  0  0            999 V2000
M  END
> <Molecule Name>
CVD-0011944

> <SMILES>
Fc1cccc(CCC(C(=O)Nc2cncc3ccccc23)c2cccc(Cl)c2)c1

$$$$

  CDD

  0  0  0  0  0  0            999 V2000
M  END
> <Molecule Name>
CVD-0011943

> <SMILES>
Clc1cccc(c1)N(CCC1CCCCC1)C(=O)Nc1cncc2ccccc12

$$$$

  CDD

  0  0  0  0  0  0            999 V2000
M  END
> <Molecule Name>
CVD-0011942

> <SMILES>
Ic1cccc(COc2cccc(c2)C#N)c1

$$$$

  CDD

  0  0  0  0  0  0            999 V2000
M  END
> <Molecule Name>
CVD-0011941

> <SMILES>
O=S1(=O)CCC(CC#N)C1

$$$$

  CDD

  0  0  0  0  0  0            999 V2000
M  END
> <Molecule Name>
CVD-0011940

> <SMILES>
CC1(C)CC(=O)C(CCC#N)C(=O)C1

$$$$

  CDD

  0  0  0  0  0  0            999 V2000
M  END
> <Molecule Name>
CVD-0011939

> <SMILES>
Clc1ccc(COc2cccc(c2)C#N)cc1Cl

$$$$

  CDD

  0  0  0  0  0  0            999 V2000
M  END
> <Molecule Name>
CVD-0011938

> <SMILES>
C#CCSc1nc2CCCCc2cc1C#N

$$$$

  CDD

  0  0  0  0  0  0            999 V2000
M  END
> <Molecule Name>
CVD-0011937

> <SMILES>
Cc1cc(SCC#N)nc2ccccc12

$$$$

  CDD

  0  0  0  0  0  0            999 V2000
M  END
> <Molecule Name>
CVD-0011936

> <SMILES>
Cc1ccc(cc1C)S(=O)(=O)CCC#N

$$$$

  CDD

  0  0  0  0  0  0            999 V2000
M  END
> <Molecule Name>
CVD-0011935

> <SMILES>
COc1cccc(CSc2nc3CCCCCc3cc2C#N)c1

$$$$

  CDD

  0  0  0  0  0  0            999 V2000
M  END
> <Molecule Name>
CVD-0011934

> <SMILES>
C#CCSc1nc2CCCc2cc1C#N

$$$$

  CDD

  0  0  0  0  0  0            999 V2000
M  END
> <Molecule Name>
CVD-0011933

> <SMILES>
CSc1nc2CCCCCc2cc1C#N

$$$$

  CDD

  0  0  0  0  0  0            999 V2000
M  END
> <Molecule Name>
CVD-0011932

> <SMILES>
COc1cccc(CSc2nc3CCCc3cc2C#N)c1

$$$$

  CDD

  0  0  0  0  0  0            999 V2000
M  END
> <Molecule Name>
CVD-0011931

> <SMILES>
Cc1cccc2c(C)cc(SCC#N)nc12

$$$$

  CDD

  0  0  0  0  0  0            999 V2000
M  END
> <Molecule Name>
CVD-0011930

> <SMILES>
Cc1cc(C)c2nc(SCC#N)cc(C)c2c1

$$$$

  CDD

  0  0  0  0  0  0            999 V2000
M  END
> <Molecule Name>
CVD-0011929

> <SMILES>
O=C(OCc1ccccc1C#N)c1ccccn1

$$$$

  CDD

  0  0  0  0  0  0            999 V2000
M  END
> <Molecule Name>
CVD-0011928

> <SMILES>
CCCCSc1nc(C)c(cc1C#N)C(C)=O

$$$$

  CDD

  0  0  0  0  0  0            999 V2000
M  END
> <Molecule Name>
CVD-0011927

> <SMILES>
NC(=O)C1C(C(C#N)C(O)(NC1=O)c1ccccc1)c1ccsc1

$$$$

  CDD

  0  0  0  0  0  0            999 V2000
M  END
> <Molecule Name>
CVD-0011926

> <SMILES>
N#Cc1ccc(CSc2nc3ccccc3s2)cc1

$$$$

  CDD

  0  0  0  0  0  0            999 V2000
M  END
> <Molecule Name>
CVD-0011925

> <SMILES>
CC(=O)c1cc(CSc2nc(ccc2C#N)-c2cccs2)cs1

$$$$

  CDD

  0  0  0  0  0  0            999 V2000
M  END
> <Molecule Name>
CVD-0011924

> <SMILES>
CCCC1CCc2c(C1)sc(NC(=O)CCC(O)=O)c2C#N

$$$$

  CDD

  0  0  0  0  0  0            999 V2000
M  END
> <Molecule Name>
CVD-0011923

> <SMILES>
CCCCSc1nc2CCCCc2cc1C#N

$$$$

  CDD

  0  0  0  0  0  0            999 V2000
M  END
> <Molecule Name>
CVD-0011922

> <SMILES>
CCCCSc1nc2CCCc2cc1C#N

$$$$

  CDD

  0  0  0  0  0  0            999 V2000
M  END
> <Molecule Name>
CVD-0011921

> <SMILES>
C=CCSc1nc2CCCCc2cc1C#N

$$$$

  CDD

  0  0  0  0  0  0            999 V2000
M  END
> <Molecule Name>
CVD-0011920

> <SMILES>
Cc1ccc(NC(=O)CSCC#N)cc1

$$$$

  CDD

  0  0  0  0  0  0            999 V2000
M  END
> <Molecule Name>
CVD-0011919

> <SMILES>
COc1ccc(CSc2nc(C)cc(C)c2C#N)cc1

$$$$

  CDD

  0  0  0  0  0  0            999 V2000
M  END
> <Molecule Name>
CVD-0011918

> <SMILES>
CC(=C)CSc1nc2CCCc2cc1C#N

$$$$

  CDD

  0  0  0  0  0  0            999 V2000
M  END
> <Molecule Name>
CVD-0011917

> <SMILES>
C=CCSc1nc2CCCc2cc1C#N

$$$$

  CDD

  0  0  0  0  0  0            999 V2000
M  END
> <Molecule Name>
CVD-0011916

> <SMILES>
CC(C)(C)c1cc(CCCC#N)cc(c1O)C(C)(C)C

$$$$

  CDD

  0  0  0  0  0  0            999 V2000
M  END
> <Molecule Name>
CVD-0011915

> <SMILES>
O=c1cc(nc(SCc2ccc(cc2)C#N)[nH]1)-c1ccccc1

$$$$

  CDD

  0  0  0  0  0  0            999 V2000
M  END
> <Molecule Name>
CVD-0011914

> <SMILES>
OC(=O)c1cc2cc(CSCCC#N)ccc2o1

$$$$

  CDD

  0  0  0  0  0  0            999 V2000
M  END
> <Molecule Name>
CVD-0011913

> <SMILES>
OC(=O)CCC(=O)Nc1sc2CCCCCc2c1C#N

$$$$

  CDD

  0  0  0  0  0  0            999 V2000
M  END
> <Molecule Name>
CVD-0011912

> <SMILES>
CC(C)CCSc1nc(C)c(cc1C#N)C(C)=O

$$$$

  CDD

  0  0  0  0  0  0            999 V2000
M  END
> <Molecule Name>
CVD-0011911

> <SMILES>
CCOC(=O)C(=O)Nc1sc2CC(C)CCc2c1C#N

$$$$

  CDD

  0  0  0  0  0  0            999 V2000
M  END
> <Molecule Name>
CVD-0011910

> <SMILES>
Brc1ccc(NC(=O)CSCC#N)cc1

$$$$

  CDD

  0  0  0  0  0  0            999 V2000
M  END
> <Molecule Name>
CVD-0011909

> <SMILES>
O=C(CSc1ncn(n1)-c1ccccc1)Nc1sc2CCCCc2c1C#N

$$$$

  CDD

  0  0  0  0  0  0            999 V2000
M  END
> <Molecule Name>
CVD-0011908

> <SMILES>
Cc1nn(c(O)c1CCC#N)-c1nc2ccccc2s1

$$$$

  CDD

  0  0  0  0  0  0            999 V2000
M  END
> <Molecule Name>
CVD-0011907

> <SMILES>
Cc1ccc(C#N)c(SCc2ccc(cc2)C(O)=O)n1

$$$$

  CDD

  0  0  0  0  0  0            999 V2000
M  END
> <Molecule Name>
CVD-0011906

> <SMILES>
CC1CCc2c(C1)sc1ncnc(SCC#N)c21

$$$$

  CDD

  0  0  0  0  0  0            999 V2000
M  END
> <Molecule Name>
CVD-0011905

> <SMILES>
OC(=O)c1ccc(OCc2ccccc2C#N)cc1

$$$$

  CDD

  0  0  0  0  0  0            999 V2000
M  END
> <Molecule Name>
CVD-0011904

> <SMILES>
OC(=O)CSCc1ccc(cc1)C#N

$$$$

  CDD

  0  0  0  0  0  0            999 V2000
M  END
> <Molecule Name>
CVD-0011903

> <SMILES>
O=C(CSCC#N)Nc1ccccc1

$$$$

  CDD

  0  0  0  0  0  0            999 V2000
M  END
> <Molecule Name>
CVD-0011902

> <SMILES>
COc1ccc(cc1CSCCC#N)C(C)=O

$$$$

  CDD

  0  0  0  0  0  0            999 V2000
M  END
> <Molecule Name>
CVD-0011901

> <SMILES>
CCc1ccc(NC(=O)CSCC#N)cc1

$$$$

  CDD

  0  0  0  0  0  0            999 V2000
M  END
> <Molecule Name>
CVD-0011900

> <SMILES>
Cn1c(SCc2ccc(cc2Cl)C#N)nc2ccccc12

$$$$

  CDD

  0  0  0  0  0  0            999 V2000
M  END
> <Molecule Name>
CVD-0011899

> <SMILES>
Cc1cc(C)c(C#N)c(SCc2ccc(Cl)nc2)n1

$$$$

  CDD

  0  0  0  0  0  0            999 V2000
M  END
> <Molecule Name>
CVD-0011898

> <SMILES>
Cc1sc(NC(=O)CCCC(O)=O)c(C#N)c1C

$$$$

  CDD

  0  0  0  0  0  0            999 V2000
M  END
> <Molecule Name>
CVD-0011897

> <SMILES>
Cc1nnc(SCc2ccc(cc2)C#N)s1

$$$$

  CDD

  0  0  0  0  0  0            999 V2000
M  END
> <Molecule Name>
CVD-0011896

> <SMILES>
Cc1ccc2nc(SCCC#N)nc(C)c2c1

$$$$

  CDD

  0  0  0  0  0  0            999 V2000
M  END
> <Molecule Name>
CVD-0011895

> <SMILES>
Cc1cc(C)c(C#N)c(SC2CCCCC2=O)n1

$$$$

  CDD

  0  0  0  0  0  0            999 V2000
M  END
> <Molecule Name>
CVD-0011894

> <SMILES>
Cc1nnc(SCc2ccc(cc2)C#N)[nH]1

$$$$

  CDD

  0  0  0  0  0  0            999 V2000
M  END
> <Molecule Name>
CVD-0011893

> <SMILES>
Cc1ccc(Cl)cc1NC(=O)CSCC#N

$$$$

  CDD

  0  0  0  0  0  0            999 V2000
M  END
> <Molecule Name>
CVD-0011892

> <SMILES>
Cc1cc(C)c(C#N)c(SCc2ccc(cc2)C(O)=O)n1

$$$$

  CDD

  0  0  0  0  0  0            999 V2000
M  END
> <Molecule Name>
CVD-0011891

> <SMILES>
Clc1ccc(cc1)-c1nnn(CCCCC#N)n1

$$$$

  CDD

  0  0  0  0  0  0            999 V2000
M  END
> <Molecule Name>
CVD-0011890

> <SMILES>
OC(=O)c1ccc(CSc2nc(ccc2C#N)-c2ccccc2)cc1

$$$$

  CDD

  0  0  0  0  0  0            999 V2000
M  END
> <Molecule Name>
CVD-0011889

> <SMILES>
Cc1cc(SCc2ccc(cc2)C#N)nc2ccccc12

$$$$

  CDD

  0  0  0  0  0  0            999 V2000
M  END
> <Molecule Name>
CVD-0011888

> <SMILES>
OC1CCCCC1Sc1nc2CCCCc2cc1C#N

$$$$

  CDD

  0  0  0  0  0  0            999 V2000
M  END
> <Molecule Name>
CVD-0011887

> <SMILES>
CCC1CCc2c(C1)sc(NC(=O)CCC(O)=O)c2C#N

$$$$

  CDD

  0  0  0  0  0  0            999 V2000
M  END
> <Molecule Name>
CVD-0011886

> <SMILES>
N#Cc1ccc(CSc2ccc3ccccc3n2)cc1

$$$$

  CDD

  0  0  0  0  0  0            999 V2000
M  END
> <Molecule Name>
CVD-0011885

> <SMILES>
Cc1cccc(NC(=O)CSc2ncccc2C#N)c1

$$$$

  CDD

  0  0  0  0  0  0            999 V2000
M  END
> <Molecule Name>
CVD-0011884

> <SMILES>
N#Cc1cc2CCCCCc2nc1SCc1cccnc1

$$$$

  CDD

  0  0  0  0  0  0            999 V2000
M  END
> <Molecule Name>
CVD-0011883

> <SMILES>
Cc1cc(nc(SCc2ccc(cc2)C#N)n1)-c1ccccc1

$$$$

  CDD

  0  0  0  0  0  0            999 V2000
M  END
> <Molecule Name>
CVD-0011882

> <SMILES>
N#Cc1cc2CCCc2nc1SCc1nc2ccccc2[nH]1

$$$$

  CDD

  0  0  0  0  0  0            999 V2000
M  END
> <Molecule Name>
CVD-0011881

> <SMILES>
CCCc1oc(cc1CSc1nnc(N)s1)C#N

$$$$

  CDD

  0  0  0  0  0  0            999 V2000
M  END
> <Molecule Name>
CVD-0011880

> <SMILES>
Brc1ccc2nc(SCc3ccc(cc3)C#N)[nH]c2c1

$$$$

  CDD

  0  0  0  0  0  0            999 V2000
M  END
> <Molecule Name>
CVD-0011879

> <SMILES>
CSc1cccc(NC(=O)CSc2ncccc2C#N)c1

$$$$

  CDD

  0  0  0  0  0  0            999 V2000
M  END
> <Molecule Name>
CVD-0011878

> <SMILES>
O=C(CSc1ccccn1)Nc1sc2CCCCCc2c1C#N

$$$$

  CDD

  0  0  0  0  0  0            999 V2000
M  END
> <Molecule Name>
CVD-0011877

> <SMILES>
Cc1nc(SCc2ccc(cc2)C#N)nc2CCCCc12

$$$$

  CDD

  0  0  0  0  0  0            999 V2000
M  END
> <Molecule Name>
CVD-0011876

> <SMILES>
N#Cc1ccc(CSc2nnc(o2)-c2ccccc2)cc1

$$$$

  CDD

  0  0  0  0  0  0            999 V2000
M  END
> <Molecule Name>
CVD-0011875

> <SMILES>
O=c1[nH]c(SCc2ccc(cc2)C#N)nc2CCCc12

$$$$

  CDD

  0  0  0  0  0  0            999 V2000
M  END
> <Molecule Name>
CVD-0011874

> <SMILES>
COc1cc(ccc1O)C1(CCCC1)C#N

$$$$

  CDD

  0  0  0  0  0  0            999 V2000
M  END
> <Molecule Name>
CVD-0011873

> <SMILES>
N#Cc1cccc(CSc2nc3ccccc3o2)c1

$$$$

  CDD

  0  0  0  0  0  0            999 V2000
M  END
> <Molecule Name>
CVD-0011872

> <SMILES>
N#CCCSCc1nc2ccccc2[nH]1

$$$$

  CDD

  0  0  0  0  0  0            999 V2000
M  END
> <Molecule Name>
CVD-0011871

> <SMILES>
N#Cc1ccc(CSc2ncccn2)cc1

$$$$

  CDD

  0  0  0  0  0  0            999 V2000
M  END
> <Molecule Name>
CVD-0011870

> <SMILES>
COc1ccc(cc1)-c1nnc(SCc2cccc(c2)C#N)o1

$$$$

  CDD

  0  0  0  0  0  0            999 V2000
M  END
> <Molecule Name>
CVD-0011869

> <SMILES>
Cc1ccc(NC(=O)CSc2ncccc2C#N)cc1C

$$$$

  CDD

  0  0  0  0  0  0            999 V2000
M  END
> <Molecule Name>
CVD-0011868

> <SMILES>
Cc1ccc(cc1)S(=O)(=O)NC(=O)CC#N

$$$$

  CDD

  0  0  0  0  0  0            999 V2000
M  END
> <Molecule Name>
CVD-0011867

> <SMILES>
Cn1c(SCc2cccc(c2)C#N)nc2ccccc2c1=O

$$$$

  CDD

  0  0  0  0  0  0            999 V2000
M  END
> <Molecule Name>
CVD-0011866

> <SMILES>
Clc1cc(ccc1CSc1nc2ccccc2o1)C#N

$$$$

  CDD

  0  0  0  0  0  0            999 V2000
M  END
> <Molecule Name>
CVD-0011865

> <SMILES>
Cc1cc(C)c(C#N)c(SCc2ccc3OCOc3c2)n1

$$$$

  CDD

  0  0  0  0  0  0            999 V2000
M  END
> <Molecule Name>
CVD-0011864

> <SMILES>
NC(=O)CSc1nc2CCCCCc2cc1C#N

$$$$

  CDD

  0  0  0  0  0  0            999 V2000
M  END
> <Molecule Name>
CVD-0011863

> <SMILES>
O=c1[nH]c(SCc2ccc(cc2)C#N)nc2CCCCc12

$$$$

  CDD

  0  0  0  0  0  0            999 V2000
M  END
> <Molecule Name>
CVD-0011862

> <SMILES>
NC(=O)CSc1nc2CCCCc2cc1C#N

$$$$

  CDD

  0  0  0  0  0  0            999 V2000
M  END
> <Molecule Name>
CVD-0011861

> <SMILES>
OC(=O)CSc1nc2CCCCc2cc1C#N

$$$$

  CDD

  0  0  0  0  0  0            999 V2000
M  END
> <Molecule Name>
CVD-0011860

> <SMILES>
N#Cc1cc2CCCc2nc1SCc1ccncc1

$$$$

  CDD

  0  0  0  0  0  0            999 V2000
M  END
> <Molecule Name>
CVD-0011859

> <SMILES>
O=C(CSc1ccccc1)N(CC#N)CC#N

$$$$

  CDD

  0  0  0  0  0  0            999 V2000
M  END
> <Molecule Name>
CVD-0011858

> <SMILES>
Cc1sc2nc(SCc3cccc(c3)C#N)n(C)c(=O)c2c1C

$$$$

  CDD

  0  0  0  0  0  0            999 V2000
M  END
> <Molecule Name>
CVD-0011857

> <SMILES>
CC1(C)CC(=O)c2cc(C#N)c(SCC(N)=O)nc2C1

$$$$

  CDD

  0  0  0  0  0  0            999 V2000
M  END
> <Molecule Name>
CVD-0011856

> <SMILES>
N#Cc1cc2CCCCc2nc1SCCC1OCCO1

$$$$

  CDD

  0  0  0  0  0  0            999 V2000
M  END
> <Molecule Name>
CVD-0011855

> <SMILES>
O=c1[nH]c(SCc2ccc(cc2)C#N)nc2ccccc12

$$$$

  CDD

  0  0  0  0  0  0            999 V2000
M  END
> <Molecule Name>
CVD-0011854

> <SMILES>
N#Cc1cc2CCCCCc2nc1SCc1ccncc1

$$$$

  CDD

  0  0  0  0  0  0            999 V2000
M  END
> <Molecule Name>
CVD-0011853

> <SMILES>
CCS(=O)(=O)CCSc1nc2CCCCc2cc1C#N

$$$$

  CDD

  0  0  0  0  0  0            999 V2000
M  END
> <Molecule Name>
CVD-0011852

> <SMILES>
Cn1c(SCc2cccc(c2)C#N)nc2sc3CCCc3c2c1=O

$$$$

  CDD

  0  0  0  0  0  0            999 V2000
M  END
> <Molecule Name>
CVD-0011851

> <SMILES>
COc1ccc(cc1)-c1nnc(SCc2ccc(cc2)C#N)o1

$$$$

  CDD

  0  0  0  0  0  0            999 V2000
M  END
> <Molecule Name>
CVD-0011850

> <SMILES>
N#Cc1ccc(CSc2nnc(COc3ccccc3)o2)cc1

$$$$

  CDD

  0  0  0  0  0  0            999 V2000
M  END
> <Molecule Name>
CVD-0011849

> <SMILES>
NS(=O)(=O)c1ccc(NC(=O)CSc2nc3CCCCc3cc2C#N)cc1

$$$$

  CDD

  0  0  0  0  0  0            999 V2000
M  END
> <Molecule Name>
CVD-0011848

> <SMILES>
NS(=O)(=O)c1ccc(NC(=O)CSc2nc3CCCCCc3cc2C#N)cc1

$$$$

  CDD

  0  0  0  0  0  0            999 V2000
M  END
> <Molecule Name>
CVD-0011847

> <SMILES>
CC(Sc1nc2CCCCCc2cc1C#N)C(O)=O

$$$$

  CDD

  0  0  0  0  0  0            999 V2000
M  END
> <Molecule Name>
CVD-0011846

> <SMILES>
CC(C)Cc1ccc(C#N)c(SCC(N)=O)n1

$$$$

  CDD

  0  0  0  0  0  0            999 V2000
M  END
> <Molecule Name>
CVD-0011845

> <SMILES>
N#Cc1ccccc1OCCCCSc1ncccn1

$$$$

  CDD

  0  0  0  0  0  0            999 V2000
M  END
> <Molecule Name>
CVD-0011844

> <SMILES>
Cc1nc(SCC(=O)C2CC2)c(C#N)c(C)c1C

$$$$

  CDD

  0  0  0  0  0  0            999 V2000
M  END
> <Molecule Name>
CVD-0011843

> <SMILES>
O=C(CSc1ncccc1C#N)NC1CCCCC1

$$$$

  CDD

  0  0  0  0  0  0            999 V2000
M  END
> <Molecule Name>
CVD-0011842

> <SMILES>
CC(=O)c1ccc(NC(=O)CSc2nc(C)cc(C)c2C#N)cc1

$$$$

  CDD

  0  0  0  0  0  0            999 V2000
M  END
> <Molecule Name>
CVD-0011841

> <SMILES>
N#CCSc1nc2ccccc2s1

$$$$

  CDD

  0  0  0  0  0  0            999 V2000
M  END
> <Molecule Name>
CVD-0011840

> <SMILES>
CCOC(=O)C(C#N)C(=O)c1ccc(NC(=O)c2ccc(Br)cc2)cc1

$$$$

  CDD

  0  0  0  0  0  0            999 V2000
M  END
> <Molecule Name>
CVD-0011839

> <SMILES>
COc1ccc(NC(=O)CSCc2ccc(cc2)C#N)cc1

$$$$

  CDD

  0  0  0  0  0  0            999 V2000
M  END
> <Molecule Name>
CVD-0011838

> <SMILES>
CCc1nc(SCC(=O)OCc2ccccc2)c(cc1C)C#N

$$$$

  CDD

  0  0  0  0  0  0            999 V2000
M  END
> <Molecule Name>
CVD-0011837

> <SMILES>
Cc1cc(C)c(C#N)c(SCC(=O)Nc2ccc(cc2)S(N)(=O)=O)n1

$$$$

  CDD

  0  0  0  0  0  0            999 V2000
M  END
> <Molecule Name>
CVD-0011836

> <SMILES>
COc1ccc(cc1)C(=O)CSc1nc(C)cc(C)c1C#N

$$$$

  CDD

  0  0  0  0  0  0            999 V2000
M  END
> <Molecule Name>
CVD-0011835

> <SMILES>
COc1cc(CO)ccc1OCc1ccccc1C#N

$$$$

  CDD

  0  0  0  0  0  0            999 V2000
M  END
> <Molecule Name>
CVD-0011834

> <SMILES>
Cc1cccc2c1nc(CC#N)[nH]c2=O

$$$$

  CDD

  0  0  0  0  0  0            999 V2000
M  END
> <Molecule Name>
CVD-0011833

> <SMILES>
Cc1c(Cl)cccc1NC(=O)COc1ccc(cc1)C#N

$$$$

  CDD

  0  0  0  0  0  0            999 V2000
M  END
> <Molecule Name>
CVD-0011832

> <SMILES>
CCOC(=O)C(C#N)C(=O)c1ccc(NC(=O)c2cccc(OC)c2)cc1

$$$$

  CDD

  0  0  0  0  0  0            999 V2000
M  END
> <Molecule Name>
CVD-0011831

> <SMILES>
Nc1ccc(cc1)C(=O)CC#N

$$$$

  CDD

  0  0  0  0  0  0            999 V2000
M  END
> <Molecule Name>
CVD-0011830

> <SMILES>
Clc1cccc(c1)-c1nnc(CC#N)[nH]1

$$$$

  CDD

  0  0  0  0  0  0            999 V2000
M  END
> <Molecule Name>
CVD-0011829

> <SMILES>
COCCNc1oc(nc1C#N)-c1cccc(C)c1

$$$$

  CDD

  0  0  0  0  0  0            999 V2000
M  END
> <Molecule Name>
CVD-0011828

> <SMILES>
Cc1ccc2[nH]c(CSc3nc(C)ccc3C#N)nc2c1

$$$$

  CDD

  0  0  0  0  0  0            999 V2000
M  END
> <Molecule Name>
CVD-0011827

> <SMILES>
CSc1nc2CCCC(=O)c2cc1C#N

$$$$

  CDD

  0  0  0  0  0  0            999 V2000
M  END
> <Molecule Name>
CVD-0011826

> <SMILES>
COCCNc1oc(nc1C#N)-c1ccccc1C

$$$$

  CDD

  0  0  0  0  0  0            999 V2000
M  END
> <Molecule Name>
CVD-0011825

> <SMILES>
COc1cc(CO)c(Br)cc1OCc1ccccc1C#N

$$$$

  CDD

  0  0  0  0  0  0            999 V2000
M  END
> <Molecule Name>
CVD-0011824

> <SMILES>
O=C(CSc1ncccc1C#N)N1CCc2ccccc12

$$$$

  CDD

  0  0  0  0  0  0            999 V2000
M  END
> <Molecule Name>
CVD-0011823

> <SMILES>
Cc1cc(C)c(C#N)c(SCC(=O)OCc2ccccc2)n1

$$$$

  CDD

  0  0  0  0  0  0            999 V2000
M  END
> <Molecule Name>
CVD-0011822

> <SMILES>
Brc1ccc(cc1)S(=O)(=O)CCC#N

$$$$

  CDD

  0  0  0  0  0  0            999 V2000
M  END
> <Molecule Name>
CVD-0011821

> <SMILES>
Cc1ccc(cc1)-c1nn(CCC#N)cc1CO

$$$$

  CDD

  0  0  0  0  0  0            999 V2000
M  END
> <Molecule Name>
CVD-0011820

> <SMILES>
CNc1oc(COc2ccc(C)cc2)nc1C#N

$$$$

  CDD

  0  0  0  0  0  0            999 V2000
M  END
> <Molecule Name>
CVD-0011819

> <SMILES>
O=c1oc2ccccc2cc1-c1csc(CC#N)n1

$$$$

  CDD

  0  0  0  0  0  0            999 V2000
M  END
> <Molecule Name>
CVD-0011818

> <SMILES>
CC1CCN(CCOCCOc2ccccc2C#N)CC1

$$$$

  CDD

  0  0  0  0  0  0            999 V2000
M  END
> <Molecule Name>
CVD-0011817

> <SMILES>
O=C(CSc1ccccn1)Nc1ccc(cc1)C#N

$$$$

  CDD

  0  0  0  0  0  0            999 V2000
M  END
> <Molecule Name>
CVD-0011816

> <SMILES>
Fc1ccccc1NC(=O)CSc1ncccc1C#N

$$$$

  CDD

  0  0  0  0  0  0            999 V2000
M  END
> <Molecule Name>
CVD-0011815

> <SMILES>
Oc1cc(nn1CCC#N)-c1ccccc1

$$$$

  CDD

  0  0  0  0  0  0            999 V2000
M  END
> <Molecule Name>
CVD-0011814

> <SMILES>
Clc1ccc(cc1)S(=O)(=O)CCC#N

$$$$

  CDD

  0  0  0  0  0  0            999 V2000
M  END
> <Molecule Name>
CVD-0011813

> <SMILES>
Clc1ccc(cc1)S(=O)(=O)NCC#N

$$$$

  CDD

  0  0  0  0  0  0            999 V2000
M  END
> <Molecule Name>
CVD-0011812

> <SMILES>
Cc1cc(C)c(C#N)c(SCc2nnnn2-c2ccccc2)n1

$$$$

  CDD

  0  0  0  0  0  0            999 V2000
M  END
> <Molecule Name>
CVD-0011811

> <SMILES>
CCOC(=O)c1c(NC(=O)CC#N)sc2CCCCCc12

$$$$

  CDD

  0  0  0  0  0  0            999 V2000
M  END
> <Molecule Name>
CVD-0011810

> <SMILES>
CCOC(=O)COc1nc2CCCc2cc1C#N

$$$$

  CDD

  0  0  0  0  0  0            999 V2000
M  END
> <Molecule Name>
CVD-0011809

> <SMILES>
COc1cccc2c(C)cc3nnc(SCC#N)n3c12

$$$$

  CDD

  0  0  0  0  0  0            999 V2000
M  END
> <Molecule Name>
CVD-0011808

> <SMILES>
Cc1nc(SCC#N)c2c3CCCCc3sc2n1

$$$$

  CDD

  0  0  0  0  0  0            999 V2000
M  END
> <Molecule Name>
CVD-0011807

> <SMILES>
O=C(CSc1nc2ccccc2[nH]1)Nc1ccc(cc1)C#N

$$$$

  CDD

  0  0  0  0  0  0            999 V2000
M  END
> <Molecule Name>
CVD-0011806

> <SMILES>
O=C1N=C(C=CC1C#N)c1cccnc1

$$$$

  CDD

  0  0  0  0  0  0            999 V2000
M  END
> <Molecule Name>
CVD-0011805

> <SMILES>
Cc1cc2c(SCC#N)ncnc2s1

$$$$

  CDD

  0  0  0  0  0  0            999 V2000
M  END
> <Molecule Name>
CVD-0011804

> <SMILES>
O=c1n(CCCC#N)cnc2sc3CCCCc3c12

$$$$

  CDD

  0  0  0  0  0  0            999 V2000
M  END
> <Molecule Name>
CVD-0011803

> <SMILES>
CCc1nc(SCc2nc3ccccc3[nH]2)c(cc1C)C#N

$$$$

  CDD

  0  0  0  0  0  0            999 V2000
M  END
> <Molecule Name>
CVD-0011802

> <SMILES>
Nc1nnc(SCC(=O)Nc2sc3CCCCc3c2C#N)s1

$$$$

  CDD

  0  0  0  0  0  0            999 V2000
M  END
> <Molecule Name>
CVD-0011801

> <SMILES>
COc1ccc(CCC(=O)NCC#N)cc1

$$$$

  CDD

  0  0  0  0  0  0            999 V2000
M  END
> <Molecule Name>
CVD-0011800

> <SMILES>
O=C(CSc1nc2CCCCCc2cc1C#N)Nc1nccs1

$$$$

  CDD

  0  0  0  0  0  0            999 V2000
M  END
> <Molecule Name>
CVD-0011799

> <SMILES>
Nc1nnc(SCC(=O)Nc2sc3CCCCCc3c2C#N)s1

$$$$

  CDD

  0  0  0  0  0  0            999 V2000
M  END
> <Molecule Name>
CVD-0011798

> <SMILES>
CC(C)OC(=O)CSc1nc2CCCCCc2cc1C#N

$$$$

  CDD

  0  0  0  0  0  0            999 V2000
M  END
> <Molecule Name>
CVD-0011797

> <SMILES>
OC(=O)c1ccc(CSCCC#N)o1

$$$$

  CDD

  0  0  0  0  0  0            999 V2000
M  END
> <Molecule Name>
CVD-0011796

> <SMILES>
CCc1cc2c(SCC#N)ncnc2s1

$$$$

  CDD

  0  0  0  0  0  0            999 V2000
M  END
> <Molecule Name>
CVD-0011795

> <SMILES>
Cc1cc(C)c(C#N)c(SCC(=O)c2cccs2)n1

$$$$

  CDD

  0  0  0  0  0  0            999 V2000
M  END
> <Molecule Name>
CVD-0011794

> <SMILES>
Cc1ccc2[nH]c(SCC#N)nc2c1

$$$$

  CDD

  0  0  0  0  0  0            999 V2000
M  END
> <Molecule Name>
CVD-0011793

> <SMILES>
O=C(CSc1nc[nH]n1)Nc1sc2CCCCCc2c1C#N

$$$$

  CDD

  0  0  0  0  0  0            999 V2000
M  END
> <Molecule Name>
CVD-0011792

> <SMILES>
Cc1cc(=O)oc2cc(OCCC#N)ccc12

$$$$

  CDD

  0  0  0  0  0  0            999 V2000
M  END
> <Molecule Name>
CVD-0011791

> <SMILES>
Fc1cc(Br)ccc1NC(=O)CSc1ncccc1C#N

$$$$

  CDD

  0  0  0  0  0  0            999 V2000
M  END
> <Molecule Name>
CVD-0011790

> <SMILES>
O=C1N(CC#N)S(=O)(=O)c2ccccc12

$$$$

  CDD

  0  0  0  0  0  0            999 V2000
M  END
> <Molecule Name>
CVD-0011789

> <SMILES>
Brc1ccc(NC(=O)CSc2ncccc2C#N)cc1

$$$$

  CDD

  0  0  0  0  0  0            999 V2000
M  END
> <Molecule Name>
CVD-0011788

> <SMILES>
O=C(CSc1ncccn1)Nc1sc2CCCCc2c1C#N

$$$$

  CDD

  0  0  0  0  0  0            999 V2000
M  END
> <Molecule Name>
CVD-0011787

> <SMILES>
CSc1nsc(SCC(=O)Nc2sc3CCCCc3c2C#N)n1

$$$$

  CDD

  0  0  0  0  0  0            999 V2000
M  END
> <Molecule Name>
CVD-0011786

> <SMILES>
Brc1cccc(NC(=O)CSc2ncccc2C#N)c1

$$$$

  CDD

  0  0  0  0  0  0            999 V2000
M  END
> <Molecule Name>
CVD-0011785

> <SMILES>
N#Cc1ccc(CSc2nnc(o2)-c2ccco2)cc1

$$$$

  CDD

  0  0  0  0  0  0            999 V2000
M  END
> <Molecule Name>
CVD-0011784

> <SMILES>
O=C(CSc1ncccc1C#N)Nc1ccccc1

$$$$

  CDD

  0  0  0  0  0  0            999 V2000
M  END
> <Molecule Name>
CVD-0011783

> <SMILES>
Cc1nnc(SCC(=O)Nc2sc3CCCCc3c2C#N)s1

$$$$

  CDD

  0  0  0  0  0  0            999 V2000
M  END
> <Molecule Name>
CVD-0011782

> <SMILES>
Cc1sc2nc(C)nc(SCC#N)c2c1C

$$$$

  CDD

  0  0  0  0  0  0            999 V2000
M  END
> <Molecule Name>
CVD-0011781

> <SMILES>
N#Cc1ccc(CSc2nnc([nH]2)-c2ccncc2)cc1

$$$$

  CDD

  0  0  0  0  0  0            999 V2000
M  END
> <Molecule Name>
CVD-0011780

> <SMILES>
NC(=O)CSc1nc2CCCc2cc1C#N

$$$$

  CDD

  0  0  0  0  0  0            999 V2000
M  END
> <Molecule Name>
CVD-0011779

> <SMILES>
Cn1nnnc1SCC(=O)Nc1sc2CCCCCc2c1C#N

$$$$

  CDD

  0  0  0  0  0  0            999 V2000
M  END
> <Molecule Name>
CVD-0011778

> <SMILES>
COc1cccc2c(C)cc(SCC#N)nc12

$$$$

  CDD

  0  0  0  0  0  0            999 V2000
M  END
> <Molecule Name>
CVD-0011777

> <SMILES>
Cc1sc2ncn(CCC#N)c(=O)c2c1C

$$$$

  CDD

  0  0  0  0  0  0            999 V2000
M  END
> <Molecule Name>
CVD-0011776

> <SMILES>
N#Cc1cccc(CSc2nnc(o2)-c2ccncc2)c1

$$$$

  CDD

  0  0  0  0  0  0            999 V2000
M  END
> <Molecule Name>
CVD-0011775

> <SMILES>
Cc1sc2nc(SCC#N)[nH]c(=O)c2c1C

$$$$

  CDD

  0  0  0  0  0  0            999 V2000
M  END
> <Molecule Name>
CVD-0011774

> <SMILES>
O=C(CCn1cnnn1)Nc1sc2CCCCc2c1C#N

$$$$

  CDD

  0  0  0  0  0  0            999 V2000
M  END
> <Molecule Name>
CVD-0011773

> <SMILES>
Cc1cc(O)nc(SCc2cccc(c2)C#N)n1

$$$$

  CDD

  0  0  0  0  0  0            999 V2000
M  END
> <Molecule Name>
CVD-0011772

> <SMILES>
Cc1ccc(NC(=O)CSc2ncccc2C#N)cc1F

$$$$

  CDD

  0  0  0  0  0  0            999 V2000
M  END
> <Molecule Name>
CVD-0011771

> <SMILES>
Cc1cc(C)c(C#N)c(SCC(=O)c2ccc(O)c(O)c2)n1

$$$$

  CDD

  0  0  0  0  0  0            999 V2000
M  END
> <Molecule Name>
CVD-0011770

> <SMILES>
Clc1ccc(CS(=O)(=O)N(CC#N)CC#N)cc1

$$$$

  CDD

  0  0  0  0  0  0            999 V2000
M  END
> <Molecule Name>
CVD-0011769

> <SMILES>
N#Cc1ccc(CSc2nnc(o2)-c2ccncc2)cc1

$$$$

  CDD

  0  0  0  0  0  0            999 V2000
M  END
> <Molecule Name>
CVD-0011768

> <SMILES>
Cc1ccc(NC(=O)CSc2ncccc2C#N)cc1Cl

$$$$

  CDD

  0  0  0  0  0  0            999 V2000
M  END
> <Molecule Name>
CVD-0011767

> <SMILES>
CC(=O)CSc1nc2CCCCc2cc1C#N

$$$$

  CDD

  0  0  0  0  0  0            999 V2000
M  END
> <Molecule Name>
CVD-0011766

> <SMILES>
Cc1ccc(Nc2nc(N)nc(CC#N)n2)cc1

$$$$

  CDD

  0  0  0  0  0  0            999 V2000
M  END
> <Molecule Name>
CVD-0011765

> <SMILES>
O=c1oc2ccccc2n1CC#N

$$$$

  CDD

  0  0  0  0  0  0            999 V2000
M  END
> <Molecule Name>
CVD-0011764

> <SMILES>
Cn1cnnc1SCc1ccc(cc1Cl)C#N

$$$$

  CDD

  0  0  0  0  0  0            999 V2000
M  END
> <Molecule Name>
CVD-0011763

> <SMILES>
O=C(CSc1nnc[nH]1)Nc1sc2CCCCc2c1C#N

$$$$

  CDD

  0  0  0  0  0  0            999 V2000
M  END
> <Molecule Name>
CVD-0011762

> <SMILES>
Cc1cc(C)c(C#N)c(SCC(=O)Nc2ccc(cc2)C(N)=O)n1

$$$$

  CDD

  0  0  0  0  0  0            999 V2000
M  END
> <Molecule Name>
CVD-0011761

> <SMILES>
NS(=O)(=O)c1ccc(NC(=O)CSc2nc3CCCc3cc2C#N)cc1

$$$$

  CDD

  0  0  0  0  0  0            999 V2000
M  END
> <Molecule Name>
CVD-0011760

> <SMILES>
Cc1nc(SCC#N)c2c3CCCc3sc2n1

$$$$

  CDD

  0  0  0  0  0  0            999 V2000
M  END
> <Molecule Name>
CVD-0011759

> <SMILES>
CCOC(=O)CSc1nc2CCCCc2cc1C#N

$$$$

  CDD

  0  0  0  0  0  0            999 V2000
M  END
> <Molecule Name>
CVD-0011758

> <SMILES>
NC(=O)CSc1nc2CCCC(=O)c2cc1C#N

$$$$

  CDD

  0  0  0  0  0  0            999 V2000
M  END
> <Molecule Name>
CVD-0011757

> <SMILES>
CCOC(=O)CSc1nc2CCCCCc2cc1C#N

$$$$

  CDD

  0  0  0  0  0  0            999 V2000
M  END
> <Molecule Name>
CVD-0011756

> <SMILES>
COCc1cc(C)nc(SCc2ccccc2)c1C#N

$$$$

  CDD

  0  0  0  0  0  0            999 V2000
M  END
> <Molecule Name>
CVD-0011755

> <SMILES>
COC(=O)CSc1nc2CCCC(=O)c2cc1C#N

$$$$

  CDD

  0  0  0  0  0  0            999 V2000
M  END
> <Molecule Name>
CVD-0011754

> <SMILES>
Cc1cc(SCC(=O)Nc2sc3CCCCc3c2C#N)ncn1

$$$$

  CDD

  0  0  0  0  0  0            999 V2000
M  END
> <Molecule Name>
CVD-0011753

> <SMILES>
COC(=O)CC(=O)CSc1nc2CCCCCc2cc1C#N

$$$$

  CDD

  0  0  0  0  0  0            999 V2000
M  END
> <Molecule Name>
CVD-0011752

> <SMILES>
CC1CCN(CC1)C(=O)CSc1ncccc1C#N

$$$$

  CDD

  0  0  0  0  0  0            999 V2000
M  END
> <Molecule Name>
CVD-0011751

> <SMILES>
N#CCCN(CCC#N)c1nc2CCCCc2s1

$$$$

  CDD

  0  0  0  0  0  0            999 V2000
M  END
> <Molecule Name>
CVD-0011750

> <SMILES>
O=C(CCn1cnnn1)Nc1sc2CCCc2c1C#N

$$$$

  CDD

  0  0  0  0  0  0            999 V2000
M  END
> <Molecule Name>
CVD-0011749

> <SMILES>
O=C(CSc1ncccn1)Nc1sc2CCCCCc2c1C#N

$$$$

  CDD

  0  0  0  0  0  0            999 V2000
M  END
> <Molecule Name>
CVD-0011748

> <SMILES>
N#Cc1ccccc1OCCOCCN1CCCCC1

$$$$

  CDD

  0  0  0  0  0  0            999 V2000
M  END
> <Molecule Name>
CVD-0011747

> <SMILES>
CC1CCc2c(C1)sc(NC(=O)CSc1nccc(C)n1)c2C#N

$$$$

  CDD

  0  0  0  0  0  0            999 V2000
M  END
> <Molecule Name>
CVD-0011746

> <SMILES>
Cc1ccnc(SCC(=O)Nc2sc3CCCCCc3c2C#N)n1

$$$$

  CDD

  0  0  0  0  0  0            999 V2000
M  END
> <Molecule Name>
CVD-0011745

> <SMILES>
Oc1ccccc1NC(=O)CSc1ncccc1C#N

$$$$

  CDD

  0  0  0  0  0  0            999 V2000
M  END
> <Molecule Name>
CVD-0011744

> <SMILES>
Clc1sc(SCC#N)nc1S(=O)(=O)c1ccccc1

$$$$

  CDD

  0  0  0  0  0  0            999 V2000
M  END
> <Molecule Name>
CVD-0011743

> <SMILES>
Cc1cc(NC(=O)CSc2nc3CCCCCc3cc2C#N)no1

$$$$

  CDD

  0  0  0  0  0  0            999 V2000
M  END
> <Molecule Name>
CVD-0011742

> <SMILES>
CCc1nc(SCC(=O)Nc2cc(C)cc(C)c2)[nH]c(=O)c1C#N

$$$$

  CDD

  0  0  0  0  0  0            999 V2000
M  END
> <Molecule Name>
CVD-0011741

> <SMILES>
N#Cc1ccccc1OCCCn1ccnc1

$$$$

  CDD

  0  0  0  0  0  0            999 V2000
M  END
> <Molecule Name>
CVD-0011740

> <SMILES>
COCCNc1oc(\C=C\c2cccs2)nc1C#N

$$$$

  CDD

  0  0  0  0  0  0            999 V2000
M  END
> <Molecule Name>
CVD-0011739

> <SMILES>
CCOc1ccc(cc1)C(=O)CC#N

$$$$

  CDD

  0  0  0  0  0  0            999 V2000
M  END
> <Molecule Name>
CVD-0011738

> <SMILES>
CCc1nc(SCC(=O)Nc2ccc(C)cc2)[nH]c(=O)c1C#N

$$$$

  CDD

  0  0  0  0  0  0            999 V2000
M  END
> <Molecule Name>
CVD-0011737

> <SMILES>
N#Cc1ccccc1OCCn1cncn1

$$$$

  CDD

  0  0  0  0  0  0            999 V2000
M  END
> <Molecule Name>
CVD-0011736

> <SMILES>
CCc1nc(SCC(=O)Nc2ccc(C)c(C)c2)[nH]c(=O)c1C#N

$$$$

  CDD

  0  0  0  0  0  0            999 V2000
M  END
> <Molecule Name>
CVD-0011735

> <SMILES>
CCc1ccc(NC(=O)C(C)Sc2nc(CC)c(C#N)c(=O)[nH]2)cc1

$$$$

  CDD

  0  0  0  0  0  0            999 V2000
M  END
> <Molecule Name>
CVD-0011734

> <SMILES>
OCCN1C(=O)CCC1(C#N)c1ccccc1

$$$$

  CDD

  0  0  0  0  0  0            999 V2000
M  END
> <Molecule Name>
CVD-0011733

> <SMILES>
CCc1nc(SC(C)C(=O)Nc2ccc(C)cc2)[nH]c(=O)c1C#N

$$$$

  CDD

  0  0  0  0  0  0            999 V2000
M  END
> <Molecule Name>
CVD-0011732

> <SMILES>
Cc1c(F)cccc1NC(=O)CSc1ncccc1C#N

$$$$

  CDD

  0  0  0  0  0  0            999 V2000
M  END
> <Molecule Name>
CVD-0011731

> <SMILES>
Cc1c(Cl)cccc1NC(=O)CSc1ncccc1C#N

$$$$

  CDD

  0  0  0  0  0  0            999 V2000
M  END
> <Molecule Name>
CVD-0011730

> <SMILES>
COC(=O)Cn1cc(C#N)c2ccccc12

$$$$

  CDD

  0  0  0  0  0  0            999 V2000
M  END
> <Molecule Name>
CVD-0011729

> <SMILES>
COCCCNc1oc(nc1C#N)-c1ccccc1C

$$$$

  CDD

  0  0  0  0  0  0            999 V2000
M  END
> <Molecule Name>
CVD-0011728

> <SMILES>
COCCCNc1oc(nc1C#N)-c1cccc(C)c1

$$$$

  CDD

  0  0  0  0  0  0            999 V2000
M  END
> <Molecule Name>
CVD-0011727

> <SMILES>
CCc1nc(SC(C)C(=O)Nc2ccccc2C)[nH]c(=O)c1C#N

$$$$

  CDD

  0  0  0  0  0  0            999 V2000
M  END
> <Molecule Name>
CVD-0011726

> <SMILES>
NC(=O)CSc1nc(N)c(cc1C#N)C(=O)Nc1ccccc1

$$$$

  CDD

  0  0  0  0  0  0            999 V2000
M  END
> <Molecule Name>
CVD-0011725

> <SMILES>
Brc1ccc(cc1)N1C(=O)CC(NCC#N)C1=O

$$$$

  CDD

  0  0  0  0  0  0            999 V2000
M  END
> <Molecule Name>
CVD-0011724

> <SMILES>
COc1ccc(cc1OC)C(=O)CSc1nc(C)ccc1C#N

$$$$

  CDD

  0  0  0  0  0  0            999 V2000
M  END
> <Molecule Name>
CVD-0011723

> <SMILES>
Cc1nnc(SCC(=O)Nc2ccc(cc2)C#N)s1

$$$$

  CDD

  0  0  0  0  0  0            999 V2000
M  END
> <Molecule Name>
CVD-0011722

> <SMILES>
CCOC(=O)C(C#N)C(=O)c1ccc(N)cc1

$$$$

  CDD

  0  0  0  0  0  0            999 V2000
M  END
> <Molecule Name>
CVD-0011721

> <SMILES>
Cc1cc(C)nc(SCCCC#N)n1

$$$$

  CDD

  0  0  0  0  0  0            999 V2000
M  END
> <Molecule Name>
CVD-0011720

> <SMILES>
OCc1cn(CCC#N)nc1-c1ccccc1

$$$$

  CDD

  0  0  0  0  0  0            999 V2000
M  END
> <Molecule Name>
CVD-0011719

> <SMILES>
Cc1ccnc(SCC(=O)c2ccc(cc2)C#N)n1

$$$$

  CDD

  0  0  0  0  0  0            999 V2000
M  END
> <Molecule Name>
CVD-0011718

> <SMILES>
COC(=O)c1ccc(NC(=O)CSc2ncccc2C#N)cc1

$$$$

  CDD

  0  0  0  0  0  0            999 V2000
M  END
> <Molecule Name>
CVD-0011717

> <SMILES>
CCc1ccc(CCC(=O)Nc2sc3CCCCc3c2C#N)o1

$$$$

  CDD

  0  0  0  0  0  0            999 V2000
M  END
> <Molecule Name>
CVD-0011716

> <SMILES>
COc1ccc(cc1)C(=O)NCC#N

$$$$

  CDD

  0  0  0  0  0  0            999 V2000
M  END
> <Molecule Name>
CVD-0011715

> <SMILES>
CCc1nc(SC(C)C(=O)Nc2cc(C)ccc2C)[nH]c(=O)c1C#N

$$$$

  CDD

  0  0  0  0  0  0            999 V2000
M  END
> <Molecule Name>
CVD-0011714

> <SMILES>
CCOC(=O)c1ccc(NC(=O)CSc2ncccc2C#N)cc1

$$$$

  CDD

  0  0  0  0  0  0            999 V2000
M  END
> <Molecule Name>
CVD-0011713

> <SMILES>
N#Cc1ccccc1OCCCn1cncn1

$$$$

  CDD

  0  0  0  0  0  0            999 V2000
M  END
> <Molecule Name>
CVD-0011712

> <SMILES>
CCc1nc(SCC(=O)Nc2cccc3ccccc23)[nH]c(=O)c1C#N

$$$$

  CDD

  0  0  0  0  0  0            999 V2000
M  END
> <Molecule Name>
CVD-0011711

> <SMILES>
CCCSc1nc(C)cc(COC)c1C#N

$$$$

  CDD

  0  0  0  0  0  0            999 V2000
M  END
> <Molecule Name>
CVD-0011710

> <SMILES>
CCc1nnc(NC(=O)CSc2nc3CCCc3cc2C#N)s1

$$$$

  CDD

  0  0  0  0  0  0            999 V2000
M  END
> <Molecule Name>
CVD-0011709

> <SMILES>
CCc1nc(SCC(=O)Nc2cccc(C)c2C)[nH]c(=O)c1C#N

$$$$

  CDD

  0  0  0  0  0  0            999 V2000
M  END
> <Molecule Name>
CVD-0011708

> <SMILES>
CCOC(=O)c1sc(C)c(C#N)c1N

$$$$

  CDD

  0  0  0  0  0  0            999 V2000
M  END
> <Molecule Name>
CVD-0011707

> <SMILES>
COc1cccc(c1)-c1nc(CC#N)n[nH]1

$$$$

  CDD

  0  0  0  0  0  0            999 V2000
M  END
> <Molecule Name>
CVD-0011706

> <SMILES>
Cn1c(=O)n(CC#N)c2ccccc2c1=O

$$$$

  CDD

  0  0  0  0  0  0            999 V2000
M  END
> <Molecule Name>
CVD-0011705

> <SMILES>
O=C(CSc1nc(ccc1C#N)-c1cccs1)Nc1nccs1

$$$$

  CDD

  0  0  0  0  0  0            999 V2000
M  END
> <Molecule Name>
CVD-0011704

> <SMILES>
N#Cc1ccc(OCCSc2ncccn2)cc1

$$$$

  CDD

  0  0  0  0  0  0            999 V2000
M  END
> <Molecule Name>
CVD-0011703

> <SMILES>
Cc1nc(SCC(=O)Nc2sc3CCCCc3c2C#N)[nH]c(=O)c1CCO

$$$$

  CDD

  0  0  0  0  0  0            999 V2000
M  END
> <Molecule Name>
CVD-0011702

> <SMILES>
CCc1nc(SCC(=O)Nc2ccccc2C)[nH]c(=O)c1C#N

$$$$

  CDD

  0  0  0  0  0  0            999 V2000
M  END
> <Molecule Name>
CVD-0011701

> <SMILES>
COc1cccc(NC(=O)CSc2nc(C)c(C)c(C)c2C#N)c1

$$$$

  CDD

  0  0  0  0  0  0            999 V2000
M  END
> <Molecule Name>
CVD-0011700

> <SMILES>
O=c1n(CCCC#N)cnc2ccccc12

$$$$

  CDD

  0  0  0  0  0  0            999 V2000
M  END
> <Molecule Name>
CVD-0011699

> <SMILES>
CC1CN(CC(=O)C(C#N)c2ccccc2)CC(C)O1

$$$$

  CDD

  0  0  0  0  0  0            999 V2000
M  END
> <Molecule Name>
CVD-0011698

> <SMILES>
Cn1nnnc1SCC(=O)Nc1ccc(cc1)C#N

$$$$

  CDD

  0  0  0  0  0  0            999 V2000
M  END
> <Molecule Name>
CVD-0011697

> <SMILES>
Clc1ccc(cc1Cl)S(=O)(=O)CCC#N

$$$$

  CDD

  0  0  0  0  0  0            999 V2000
M  END
> <Molecule Name>
CVD-0011696

> <SMILES>
Cc1ccccc1NC(=O)c1cnc2nc(SCC#N)nn2c1C

$$$$

  CDD

  0  0  0  0  0  0            999 V2000
M  END
> <Molecule Name>
CVD-0011695

> <SMILES>
COCc1cc(C)nc(SCC(=O)NC2CCCCC2C)c1C#N

$$$$

  CDD

  0  0  0  0  0  0            999 V2000
M  END
> <Molecule Name>
CVD-0011694

> <SMILES>
O=C(CC#N)N1CCN(CCc2ccccc2)CC1

$$$$

  CDD

  0  0  0  0  0  0            999 V2000
M  END
> <Molecule Name>
CVD-0011693

> <SMILES>
CC1CC(=O)C(C)(CCC#N)CN1C

$$$$

  CDD

  0  0  0  0  0  0            999 V2000
M  END
> <Molecule Name>
CVD-0011692

> <SMILES>
Nc1ccc(cc1)S(=O)(=O)CCC#N

$$$$

  CDD

  0  0  0  0  0  0            999 V2000
M  END
> <Molecule Name>
CVD-0011691

> <SMILES>
O=c1oc2ccccc2n1CCCC#N

$$$$

  CDD

  0  0  0  0  0  0            999 V2000
M  END
> <Molecule Name>
CVD-0011690

> <SMILES>
Clc1ccc(cc1)S(=O)(=O)NC(=O)CC#N

$$$$

  CDD

  0  0  0  0  0  0            999 V2000
M  END
> <Molecule Name>
CVD-0011689

> <SMILES>
Fc1cccc(NC(=O)CSc2ncccc2C#N)c1

$$$$

  CDD

  0  0  0  0  0  0            999 V2000
M  END
> <Molecule Name>
CVD-0011688

> <SMILES>
CN1CCc2nc(SCc3cccnc3)c(cc2C1)C#N

$$$$

  CDD

  0  0  0  0  0  0            999 V2000
M  END
> <Molecule Name>
CVD-0011687

> <SMILES>
Fc1ccccc1-c1nnn(CCC#N)n1

$$$$

  CDD

  0  0  0  0  0  0            999 V2000
M  END
> <Molecule Name>
CVD-0011686

> <SMILES>
COCCNc1oc(COc2cccc(C)c2)nc1C#N

$$$$

  CDD

  0  0  0  0  0  0            999 V2000
M  END
> <Molecule Name>
CVD-0011685

> <SMILES>
Cc1nc(SCC(=O)Nc2sc3CCCCc3c2C#N)oc1C

$$$$

  CDD

  0  0  0  0  0  0            999 V2000
M  END
> <Molecule Name>
CVD-0011684

> <SMILES>
COCc1cc(C)nc(SCC(=O)NC2CCCCC2)c1C#N

$$$$

  CDD

  0  0  0  0  0  0            999 V2000
M  END
> <Molecule Name>
CVD-0011683

> <SMILES>
COc1ccc(cc1)S(=O)(=O)NCC#N

$$$$

  CDD

  0  0  0  0  0  0            999 V2000
M  END
> <Molecule Name>
CVD-0011682

> <SMILES>
CCc1nc(SCC(=O)c2ccccc2)[nH]c(=O)c1C#N

$$$$

  CDD

  0  0  0  0  0  0            999 V2000
M  END
> <Molecule Name>
CVD-0011681

> <SMILES>
Brc1ccc(cc1)C(=O)CN1CCN(CC#N)CC1

$$$$

  CDD

  0  0  0  0  0  0            999 V2000
M  END
> <Molecule Name>
CVD-0011680

> <SMILES>
CCOC(=O)c1sc(NC(=O)CSc2ccccn2)c(C#N)c1C

$$$$

  CDD

  0  0  0  0  0  0            999 V2000
M  END
> <Molecule Name>
CVD-0011679

> <SMILES>
O=C(CN1CCOCC1)C(C#N)c1ccccc1

$$$$

  CDD

  0  0  0  0  0  0            999 V2000
M  END
> <Molecule Name>
CVD-0011678

> <SMILES>
CCc1nnc(NC(=O)CSc2nc3CCCCc3cc2C#N)s1

$$$$

  CDD

  0  0  0  0  0  0            999 V2000
M  END
> <Molecule Name>
CVD-0011677

> <SMILES>
Cc1cc2c(nc(SCC#N)n(C)c2=O)s1

$$$$

  CDD

  0  0  0  0  0  0            999 V2000
M  END
> <Molecule Name>
CVD-0011676

> <SMILES>
Nc1nc(SCCOc2ccccc2)ncc1C#N

$$$$

  CDD

  0  0  0  0  0  0            999 V2000
M  END
> <Molecule Name>
CVD-0011675

> <SMILES>
CC(Sc1cc(C)ncn1)C(=O)Nc1sc(C)c(C)c1C#N

$$$$

  CDD

  0  0  0  0  0  0            999 V2000
M  END
> <Molecule Name>
CVD-0011674

> <SMILES>
N#Cc1cccnc1NCc1cccnc1

$$$$

  CDD

  0  0  0  0  0  0            999 V2000
M  END
> <Molecule Name>
CVD-0011673

> <SMILES>
CC(=O)c1cc(C#N)c(SCC(=O)Nc2ccc(cc2)C(N)=O)nc1C

$$$$

  CDD

  0  0  0  0  0  0            999 V2000
M  END
> <Molecule Name>
CVD-0011672

> <SMILES>
Cc1cc(C)c(C#N)c(SCC(N)=O)n1

$$$$

  CDD

  0  0  0  0  0  0            999 V2000
M  END
> <Molecule Name>
CVD-0011671

> <SMILES>
Clc1cc(NC(=O)CSc2ncccc2C#N)ccc1Br

$$$$

  CDD

  0  0  0  0  0  0            999 V2000
M  END
> <Molecule Name>
CVD-0011670

> <SMILES>
Cc1nc(sc1C(C)(C)C)N(CCC#N)CCC#N

$$$$

  CDD

  0  0  0  0  0  0            999 V2000
M  END
> <Molecule Name>
CVD-0011669

> <SMILES>
CN1CCN(CC(=O)C(C#N)c2ccccc2)CC1

$$$$

  CDD

  0  0  0  0  0  0            999 V2000
M  END
> <Molecule Name>
CVD-0011668

> <SMILES>
O=C1N(CCCC#N)c2ccccc2C1=O

$$$$

  CDD

  0  0  0  0  0  0            999 V2000
M  END
> <Molecule Name>
CVD-0011667

> <SMILES>
CCN1CCN(CC(=O)C(C#N)c2ccccc2)CC1

$$$$

  CDD

  0  0  0  0  0  0            999 V2000
M  END
> <Molecule Name>
CVD-0011666

> <SMILES>
CCc1nc(SCC(=O)NCCc2ccccc2)[nH]c(=O)c1C#N

$$$$

  CDD

  0  0  0  0  0  0            999 V2000
M  END
> <Molecule Name>
CVD-0011665

> <SMILES>
COCc1cc(C)nc(SCc2ccc(Cl)cc2)c1C#N

$$$$

  CDD

  0  0  0  0  0  0            999 V2000
M  END
> <Molecule Name>
CVD-0011664

> <SMILES>
Cc1nc(SCC(N)=O)c(C#N)c(C)c1C

$$$$

  CDD

  0  0  0  0  0  0            999 V2000
M  END
> <Molecule Name>
CVD-0011663

> <SMILES>
Cc1nc(SCC(O)=O)c(C#N)c(C)c1C

$$$$

  CDD

  0  0  0  0  0  0            999 V2000
M  END
> <Molecule Name>
CVD-0011662

> <SMILES>
O=C(CSc1ncccn1)Nc1sc2CCCc2c1C#N

$$$$

  CDD

  0  0  0  0  0  0            999 V2000
M  END
> <Molecule Name>
CVD-0011661

> <SMILES>
COC(=O)CSc1nc(C)c(C)c(C)c1C#N

$$$$

  CDD

  0  0  0  0  0  0            999 V2000
M  END
> <Molecule Name>
CVD-0011660

> <SMILES>
CCc1nnc(SCC(=O)Nc2sc3CCCCc3c2C#N)[nH]1

$$$$

  CDD

  0  0  0  0  0  0            999 V2000
M  END
> <Molecule Name>
CVD-0011659

> <SMILES>
CCc1cc2c(nc(SCC#N)n(CC=C)c2=O)s1

$$$$

  CDD

  0  0  0  0  0  0            999 V2000
M  END
> <Molecule Name>
CVD-0011658

> <SMILES>
Fc1ccc(CCN2CC(CC2=O)C(=O)NCC#N)cc1

$$$$

  CDD

  0  0  0  0  0  0            999 V2000
M  END
> <Molecule Name>
CVD-0011657

> <SMILES>
Cc1nc(SCC#N)c2oc3ccccc3c2n1

$$$$

  CDD

  0  0  0  0  0  0            999 V2000
M  END
> <Molecule Name>
CVD-0011656

> <SMILES>
O=C(CSc1nnc[nH]1)Nc1ccc(cc1)C#N

$$$$

  CDD

  0  0  0  0  0  0            999 V2000
M  END
> <Molecule Name>
CVD-0011655

> <SMILES>
COC(=O)CC(=O)CSc1nc2CCCc2cc1C#N

$$$$

  CDD

  0  0  0  0  0  0            999 V2000
M  END
> <Molecule Name>
CVD-0011654

> <SMILES>
CC(=O)c1cc(C#N)c(SCc2ccccn2)nc1C

$$$$

  CDD

  0  0  0  0  0  0            999 V2000
M  END
> <Molecule Name>
CVD-0011653

> <SMILES>
O=C(CSc1cnn[nH]1)Nc1ccc(cc1)C#N

$$$$

  CDD

  0  0  0  0  0  0            999 V2000
M  END
> <Molecule Name>
CVD-0011652

> <SMILES>
CCc1nc(SCc2cccc(c2)C(=O)OC)[nH]c(=O)c1C#N

$$$$

  CDD

  0  0  0  0  0  0            999 V2000
M  END
> <Molecule Name>
CVD-0011651

> <SMILES>
N#Cc1cccnc1NCc1ccc2OCOc2c1

$$$$

  CDD

  0  0  0  0  0  0            999 V2000
M  END
> <Molecule Name>
CVD-0011650

> <SMILES>
COCc1cc(C)nc(SCC(=O)N2CC(C)CC(C)C2)c1C#N

$$$$

  CDD

  0  0  0  0  0  0            999 V2000
M  END
> <Molecule Name>
CVD-0011649

> <SMILES>
N#CCSc1ncnc2c3ccccc3oc12

$$$$

  CDD

  0  0  0  0  0  0            999 V2000
M  END
> <Molecule Name>
CVD-0011648

> <SMILES>
CCOC(=O)CSc1ncc2CCCc2c1C#N

$$$$

  CDD

  0  0  0  0  0  0            999 V2000
M  END
> <Molecule Name>
CVD-0011647

> <SMILES>
Nc1nc(SCC(=O)N2CCc3ccccc23)ncc1C#N

$$$$

  CDD

  0  0  0  0  0  0            999 V2000
M  END
> <Molecule Name>
CVD-0011646

> <SMILES>
Nc1nc(SCC(=O)N2CCc3cc(Br)ccc23)ncc1C#N

$$$$

  CDD

  0  0  0  0  0  0            999 V2000
M  END
> <Molecule Name>
CVD-0011645

> <SMILES>
O=C(Cn1c(=O)[nH]c2ccccc2c1=O)NCC#N

$$$$

  CDD

  0  0  0  0  0  0            999 V2000
M  END
> <Molecule Name>
CVD-0011644

> <SMILES>
CCc1nc(SCC(=O)NC2CCCCC2)[nH]c(=O)c1C#N

$$$$

  CDD

  0  0  0  0  0  0            999 V2000
M  END
> <Molecule Name>
CVD-0011643

> <SMILES>
Nc1nc(SCC(=O)NCCc2ccccc2)ncc1C#N

$$$$

  CDD

  0  0  0  0  0  0            999 V2000
M  END
> <Molecule Name>
CVD-0011642

> <SMILES>
Clc1cncc2nc(oc12)-c1cccc2[nH]ccc12

$$$$

  CDD

  0  0  0  0  0  0            999 V2000
M  END
> <Molecule Name>
CVD-0011641

> <SMILES>
FC(F)c1ncc(Cl)cc1OC(=O)c1cccc2[nH]ccc12

$$$$

  CDD

  0  0  0  0  0  0            999 V2000
M  END
> <Molecule Name>
CVD-0011640

> <SMILES>
Clc1ncsc1OC(=O)c1cccc2[nH]ccc12

$$$$

  CDD

  0  0  0  0  0  0            999 V2000
M  END
> <Molecule Name>
CVD-0011639

> <SMILES>
Cc1nc(C)c(OC(=O)c2cccc3[nH]ccc23)s1

$$$$

  CDD

  0  0  0  0  0  0            999 V2000
M  END
> <Molecule Name>
CVD-0011638

> <SMILES>
Cc1ncsc1OC(=O)c1cccc2[nH]ccc12

$$$$

  CDD

  0  0  0  0  0  0            999 V2000
M  END
> <Molecule Name>
CVD-0011637

> <SMILES>
Clc1ncc(OC(=O)c2cccc3[nH]ccc23)s1

$$$$

  CDD

  0  0  0  0  0  0            999 V2000
M  END
> <Molecule Name>
CVD-0011636

> <SMILES>
O=C(Oc1nccs1)c1cccc2[nH]ccc12

$$$$

  CDD

  0  0  0  0  0  0            999 V2000
M  END
> <Molecule Name>
CVD-0011635

> <SMILES>
Clc1cccc(CC(=O)Nc2cncc3OCCCc23)c1

$$$$

  CDD

  0  0  0  0  0  0            999 V2000
M  END
> <Molecule Name>
CVD-0011634

> <SMILES>
Clc1cccc(CC(=O)Nc2cncc3CCCOc23)c1

$$$$

  CDD

  0  0  0  0  0  0            999 V2000
M  END
> <Molecule Name>
CVD-0011633

> <SMILES>
CC(NC(C)=O)c1cc(Cl)cc(c1)-c1ccc(cc1)S(N)(=O)=O

$$$$

  CDD

  0  0  0  0  0  0            999 V2000
M  END
> <Molecule Name>
CVD-0011632

> <SMILES>
CN(Cc1cccc(Cl)c1)C(=O)Cn1nnc2ccccc12

$$$$

  CDD

  0  0  0  0  0  0            999 V2000
M  END
> <Molecule Name>
CVD-0011631

> <SMILES>
CCC(=O)Nc1ccc(cc1)N(C)C(=O)Cn1nnc2ccccc12

$$$$

  CDD

  0  0  0  0  0  0            999 V2000
M  END
> <Molecule Name>
CVD-0011630

> <SMILES>
Clc1cccc(c1)C1CCN(C1=O)c1cncc2ccccc12

$$$$

  CDD

  0  0  0  0  0  0            999 V2000
M  END
> <Molecule Name>
CVD-0011629

> <SMILES>
Clc1cccc(c1)C1CCCN(C1=O)c1cncc2ccccc12

$$$$

  CDD

  0  0  0  0  0  0            999 V2000
M  END
> <Molecule Name>
CVD-0011628

> <SMILES>
O=C(Cc1cccc(c1)C#C)Nc1cncc2ccccc12

$$$$

  CDD

  0  0  0  0  0  0            999 V2000
M  END
> <Molecule Name>
CVD-0011627

> <SMILES>
Brc1cccc(CC(=O)Nc2cncc3ccccc23)c1

$$$$

  CDD

  0  0  0  0  0  0            999 V2000
M  END
> <Molecule Name>
CVD-0011626

> <SMILES>
CCNC(=O)C(N(C(=O)C=C)c1cccc(Br)c1)c1cnccc1CO

$$$$

  CDD

  0  0  0  0  0  0            999 V2000
M  END
> <Molecule Name>
CVD-0011625

> <SMILES>
FC(F)(F)c1ccc(cc1)N(C(C(=O)Nc1ccc(Cl)cc1)c1cncnc1)C(=O)C=C

$$$$

  CDD

  0  0  0  0  0  0            999 V2000
M  END
> <Molecule Name>
CVD-0011624

> <SMILES>
Clc1cccc(CNC(=O)Cn2nnc3ccccc23)c1

$$$$

  CDD

  0  0  0  0  0  0            999 V2000
M  END
> <Molecule Name>
CVD-0011623

> <SMILES>
COc1cc(Cl)cc(CC(=O)Nn2cnc3ccccc23)c1

$$$$

  CDD

  0  0  0  0  0  0            999 V2000
M  END
> <Molecule Name>
CVD-0011622

> <SMILES>
COc1ccc(Cl)cc1CC(=O)Nn1cnc2ccccc12

$$$$

  CDD

  0  0  0  0  0  0            999 V2000
M  END
> <Molecule Name>
CVD-0011621

> <SMILES>
Cn1cc(NC(=O)Cc2cc(Cl)cc(OC3CC(=O)N3)c2)c2ccccc2c1=O

$$$$

  CDD

  0  0  0  0  0  0            999 V2000
M  END
> <Molecule Name>
CVD-0011620

> <SMILES>
COc1cc(Cl)cc(CC(=O)Nc2cn(C)c(=O)c3ccccc23)c1

$$$$

  CDD

  0  0  0  0  0  0            999 V2000
M  END
> <Molecule Name>
CVD-0011619

> <SMILES>
COc1ccc(Cl)cc1CC(=O)Nc1cn(C)c(=O)c2ccccc12

$$$$

  CDD

  0  0  0  0  0  0            999 V2000
M  END
> <Molecule Name>
CVD-0011618

> <SMILES>
Clc1cc(CC(=O)Nc2cc(=O)[nH]c3ccccc23)cc(OC2CC(=O)N2)c1

$$$$

  CDD

  0  0  0  0  0  0            999 V2000
M  END
> <Molecule Name>
CVD-0011617

> <SMILES>
COc1cc(Cl)cc(CC(=O)Nc2cc(=O)[nH]c3ccccc23)c1

$$$$

  CDD

  0  0  0  0  0  0            999 V2000
M  END
> <Molecule Name>
CVD-0011616

> <SMILES>
COc1ccc(Cl)cc1CC(=O)Nc1cncc2ccccc12

$$$$

  CDD

  0  0  0  0  0  0            999 V2000
M  END
> <Molecule Name>
CVD-0011615

> <SMILES>
CNS(=O)(=O)Cc1cc(Cl)cc(CC(=O)Nc2cnccc2C)c1

$$$$

  CDD

  0  0  0  0  0  0            999 V2000
M  END
> <Molecule Name>
CVD-0011614

> <SMILES>
Cc1ccncc1NC(=O)Cc1cc(Cl)cc(CS(N)(=O)=O)c1

$$$$

  CDD

  0  0  0  0  0  0            999 V2000
M  END
> <Molecule Name>
CVD-0011613

> <SMILES>
CNS(=O)(=O)c1cc(Cl)cc(CC(=O)Nc2cnccc2C)c1

$$$$

  CDD

  0  0  0  0  0  0            999 V2000
M  END
> <Molecule Name>
CVD-0011612

> <SMILES>
Cc1ccncc1NC(=O)Cc1cc(Cl)cc(c1)S(N)(=O)=O

$$$$

  CDD

  0  0  0  0  0  0            999 V2000
M  END
> <Molecule Name>
CVD-0011611

> <SMILES>
Cc1ccncc1NC(=O)Cc1cc(Cl)cc(CNS(C)(=O)=O)c1

$$$$

  CDD

  0  0  0  0  0  0            999 V2000
M  END
> <Molecule Name>
CVD-0011610

> <SMILES>
Cc1ccncc1NC(=O)Cc1cc(Cl)cc(c1)-c1cnc[nH]1

$$$$

  CDD

  0  0  0  0  0  0            999 V2000
M  END
> <Molecule Name>
CVD-0011609

> <SMILES>
Cc1ccncc1NC(=O)Cc1cc(Cl)cc(c1)-c1nnc[nH]1

$$$$

  CDD

  0  0  0  0  0  0            999 V2000
M  END
> <Molecule Name>
CVD-0011608

> <SMILES>
Cc1ccncc1NC(=O)Cc1cc(Cl)cc(c1)-c1ncc[nH]1

$$$$

  CDD

  0  0  0  0  0  0            999 V2000
M  END
> <Molecule Name>
CVD-0011607

> <SMILES>
COC(=O)NCc1cc(Cl)cc(CC(=O)Nc2cnccc2C)c1

$$$$

  CDD

  0  0  0  0  0  0            999 V2000
M  END
> <Molecule Name>
CVD-0011606

> <SMILES>
CNC(=O)c1cc(Cl)cc(CC(=O)Nc2cnccc2C)c1

$$$$

  CDD

  0  0  0  0  0  0            999 V2000
M  END
> <Molecule Name>
CVD-0011605

> <SMILES>
Cc1ccncc1NC(=O)Cc1cc(Cl)cc(c1)C(N)=O

$$$$

  CDD

  0  0  0  0  0  0            999 V2000
M  END
> <Molecule Name>
CVD-0011604

> <SMILES>
CC(=O)NCc1cc(Cl)cc(CC(=O)Nc2cnccc2C)c1

$$$$

  CDD

  0  0  0  0  0  0            999 V2000
M  END
> <Molecule Name>
CVD-0011603

> <SMILES>
Cc1ccncc1NC(=O)Cc1cc(Cl)cc(OCc2ccn[nH]2)c1

$$$$

  CDD

  0  0  0  0  0  0            999 V2000
M  END
> <Molecule Name>
CVD-0011602

> <SMILES>
Cc1ccncc1NC(=O)Cc1cc(Cl)cc(OCc2cnc[nH]2)c1

$$$$

  CDD

  0  0  0  0  0  0            999 V2000
M  END
> <Molecule Name>
CVD-0011601

> <SMILES>
Cc1ccncc1NC(=O)Cc1cc(Cl)cc(OCc2ncn[nH]2)c1

$$$$

  CDD

  0  0  0  0  0  0            999 V2000
M  END
> <Molecule Name>
CVD-0011600

> <SMILES>
Cc1ccncc1NC(=O)Cc1cc(Cl)cc(OCc2ncc[nH]2)c1

$$$$

  CDD

  0  0  0  0  0  0            999 V2000
M  END
> <Molecule Name>
CVD-0011599

> <SMILES>
COCCNc1oc(nc1C#N)-c1ccc(OC)cc1

$$$$

  CDD

  0  0  0  0  0  0            999 V2000
M  END
> <Molecule Name>
CVD-0011598

> <SMILES>
COc1ccc(cc1OC)-c1nnn(CC#N)n1

$$$$

  CDD

  0  0  0  0  0  0            999 V2000
M  END
> <Molecule Name>
CVD-0011597

> <SMILES>
Fc1ccccc1-c1nc(C#N)c(NCCN2CCOCC2)o1

$$$$

  CDD

  0  0  0  0  0  0            999 V2000
M  END
> <Molecule Name>
CVD-0011596

> <SMILES>
CCOc1ccc(cc1)-c1nc(C#N)c(NCCOC)o1

$$$$

  CDD

  0  0  0  0  0  0            999 V2000
M  END
> <Molecule Name>
CVD-0011595

> <SMILES>
CCOc1cc(ccc1OC)-c1nnn(CC#N)n1

$$$$

  CDD

  0  0  0  0  0  0            999 V2000
M  END
> <Molecule Name>
CVD-0011594

> <SMILES>
COCCCNc1oc(nc1C#N)-c1ccc(OC)cc1

$$$$

  CDD

  0  0  0  0  0  0            999 V2000
M  END
> <Molecule Name>
CVD-0011593

> <SMILES>
CN1CCN(CCOCCOc2ccccc2C#N)CC1

$$$$

  CDD

  0  0  0  0  0  0            999 V2000
M  END
> <Molecule Name>
CVD-0011592

> <SMILES>
COCCCNc1oc(nc1C#N)-c1ccc(F)cc1

$$$$

  CDD

  0  0  0  0  0  0            999 V2000
M  END
> <Molecule Name>
CVD-0011591

> <SMILES>
CCc1nc(SCC(=O)Nc2ccccc2Cl)[nH]c(=O)c1C#N

$$$$

  CDD

  0  0  0  0  0  0            999 V2000
M  END
> <Molecule Name>
CVD-0011590

> <SMILES>
CC1CN(CCOCCOc2ccc(cc2)C#N)CC(C)O1

$$$$

  CDD

  0  0  0  0  0  0            999 V2000
M  END
> <Molecule Name>
CVD-0011589

> <SMILES>
CSc1nc(N)nc(SCc2ccc(Cl)nc2)c1C#N

$$$$

  CDD

  0  0  0  0  0  0            999 V2000
M  END
> <Molecule Name>
CVD-0011588

> <SMILES>
COCCNc1oc(nc1C#N)-c1cccc(Cl)c1

$$$$

  CDD

  0  0  0  0  0  0            999 V2000
M  END
> <Molecule Name>
CVD-0011587

> <SMILES>
COc1ccc(NC(=O)CSc2nc(C)cc(C)c2C#N)cc1

$$$$

  CDD

  0  0  0  0  0  0            999 V2000
M  END
> <Molecule Name>
CVD-0011586

> <SMILES>
COCCNc1oc(nc1C#N)-c1ccccc1Cl

$$$$

  CDD

  0  0  0  0  0  0            999 V2000
M  END
> <Molecule Name>
CVD-0011585

> <SMILES>
CCOC1CN=C2N1C=CC=C2C#N

$$$$

  CDD

  0  0  0  0  0  0            999 V2000
M  END
> <Molecule Name>
CVD-0011584

> <SMILES>
OCc1cn(CCC#N)nc1-c1ccc(F)cc1

$$$$

  CDD

  0  0  0  0  0  0            999 V2000
M  END
> <Molecule Name>
CVD-0011583

> <SMILES>
COCCCNc1oc(nc1C#N)-c1ccccc1Cl

$$$$

  CDD

  0  0  0  0  0  0            999 V2000
M  END
> <Molecule Name>
CVD-0011582

> <SMILES>
CN(C)CCCNc1oc(nc1C#N)-c1ccccc1F

$$$$

  CDD

  0  0  0  0  0  0            999 V2000
M  END
> <Molecule Name>
CVD-0011581

> <SMILES>
COc1ccc(NC(=O)CSc2nc(C)c(C)cc2C#N)cc1

$$$$

  CDD

  0  0  0  0  0  0            999 V2000
M  END
> <Molecule Name>
CVD-0011580

> <SMILES>
N#CCCNCC1COc2ccccc2O1

$$$$

  CDD

  0  0  0  0  0  0            999 V2000
M  END
> <Molecule Name>
CVD-0011579

> <SMILES>
CCc1nnc(NC(=O)CSc2nc(C)cc(C)c2C#N)s1

$$$$

  CDD

  0  0  0  0  0  0            999 V2000
M  END
> <Molecule Name>
CVD-0011578

> <SMILES>
COC(=O)c1ccc(COc2nc(C)cc(C)c2C#N)o1

$$$$

  CDD

  0  0  0  0  0  0            999 V2000
M  END
> <Molecule Name>
CVD-0011577

> <SMILES>
COc1ccc(cc1)-c1nn(CCC#N)cc1CO

$$$$

  CDD

  0  0  0  0  0  0            999 V2000
M  END
> <Molecule Name>
CVD-0011576

> <SMILES>
O=C(CC#N)c1ccc2OCCOc2c1

$$$$

  CDD

  0  0  0  0  0  0            999 V2000
M  END
> <Molecule Name>
CVD-0011575

> <SMILES>
CCc1nc(SCC(=O)OCc2ccccc2)[nH]c(=O)c1C#N

$$$$

  CDD

  0  0  0  0  0  0            999 V2000
M  END
> <Molecule Name>
CVD-0011574

> <SMILES>
CCc1nc(SC(C)C(=O)Nc2ccccc2Cl)[nH]c(=O)c1C#N

$$$$

  CDD

  0  0  0  0  0  0            999 V2000
M  END
> <Molecule Name>
CVD-0011573

> <SMILES>
COCCCNc1oc(nc1C#N)-c1ccccc1F

$$$$

  CDD

  0  0  0  0  0  0            999 V2000
M  END
> <Molecule Name>
CVD-0011572

> <SMILES>
N#Cc1cccnc1NCc1ccncc1

$$$$

  CDD

  0  0  0  0  0  0            999 V2000
M  END
> <Molecule Name>
CVD-0011571

> <SMILES>
COCc1cc(C)nc(SCCOc2ccccc2)c1C#N

$$$$

  CDD

  0  0  0  0  0  0            999 V2000
M  END
> <Molecule Name>
CVD-0011570

> <SMILES>
COc1ccc(NC(=O)CSc2ncc3CCCc3c2C#N)cc1

$$$$

  CDD

  0  0  0  0  0  0            999 V2000
M  END
> <Molecule Name>
CVD-0011569

> <SMILES>
COc1ccc(CNc2oc(C)nc2C#N)cc1

$$$$

  CDD

  0  0  0  0  0  0            999 V2000
M  END
> <Molecule Name>
CVD-0011568

> <SMILES>
N#Cc1ccccc1OCCCCn1cncn1

$$$$

  CDD

  0  0  0  0  0  0            999 V2000
M  END
> <Molecule Name>
CVD-0011567

> <SMILES>
CN(CCC#N)CC(=O)Nc1ccc(cc1)S(N)(=O)=O

$$$$

  CDD

  0  0  0  0  0  0            999 V2000
M  END
> <Molecule Name>
CVD-0011566

> <SMILES>
CSc1nc(N)nc(SCc2cccnc2)c1C#N

$$$$

  CDD

  0  0  0  0  0  0            999 V2000
M  END
> <Molecule Name>
CVD-0011565

> <SMILES>
Cc1c(cnc2nc(SCC#N)nn12)C(=O)Nc1ccccc1

$$$$

  CDD

  0  0  0  0  0  0            999 V2000
M  END
> <Molecule Name>
CVD-0011564

> <SMILES>
CN(C)CCNCCCOc1ccccc1C#N

$$$$

  CDD

  0  0  0  0  0  0            999 V2000
M  END
> <Molecule Name>
CVD-0011563

> <SMILES>
OCCN1CCN(CCOc2ccccc2C#N)CC1

$$$$

  CDD

  0  0  0  0  0  0            999 V2000
M  END
> <Molecule Name>
CVD-0011562

> <SMILES>
COc1ccc(cc1)-c1cc(O)n(CCC#N)n1

$$$$

  CDD

  0  0  0  0  0  0            999 V2000
M  END
> <Molecule Name>
CVD-0011561

> <SMILES>
OCc1cn(CCC#N)nc1-c1ccc(Cl)cc1

$$$$

  CDD

  0  0  0  0  0  0            999 V2000
M  END
> <Molecule Name>
CVD-0011560

> <SMILES>
Cn1ccnc1SCC(=O)Nc1sccc1C#N

$$$$

  CDD

  0  0  0  0  0  0            999 V2000
M  END
> <Molecule Name>
CVD-0011559

> <SMILES>
COC(=O)COc1nc(C)cc(C)c1C#N

$$$$

  CDD

  0  0  0  0  0  0            999 V2000
M  END
> <Molecule Name>
CVD-0011558

> <SMILES>
CC1(C)NC(=O)N(CCCCOc2ccccc2C#N)C1=O

$$$$

  CDD

  0  0  0  0  0  0            999 V2000
M  END
> <Molecule Name>
CVD-0011557

> <SMILES>
COCCNc1oc(nc1C#N)-c1ccccc1F

$$$$

  CDD

  0  0  0  0  0  0            999 V2000
M  END
> <Molecule Name>
CVD-0011556

> <SMILES>
CN(CCC#N)S(=O)(=O)c1ccc(NC(C)=O)cc1

$$$$

  CDD

  0  0  0  0  0  0            999 V2000
M  END
> <Molecule Name>
CVD-0011555

> <SMILES>
CN1CCN(CCCOc2ccccc2C#N)CC1

$$$$

  CDD

  0  0  0  0  0  0            999 V2000
M  END
> <Molecule Name>
CVD-0011554

> <SMILES>
CC1(C)Cc2nc(NCc3cccnc3)c(cc2CO1)C#N

$$$$

  CDD

  0  0  0  0  0  0            999 V2000
M  END
> <Molecule Name>
CVD-0011553

> <SMILES>
Fc1ccc(NC(=O)CSCC#N)cc1

$$$$

  CDD

  0  0  0  0  0  0            999 V2000
M  END
> <Molecule Name>
CVD-0011552

> <SMILES>
Cn1cnnc1SCC(=O)Nc1ccc(cc1)C#N

$$$$

  CDD

  0  0  0  0  0  0            999 V2000
M  END
> <Molecule Name>
CVD-0011551

> <SMILES>
O=c1n(CCC#N)c2ccccc2n1CCC#N

$$$$

  CDD

  0  0  0  0  0  0            999 V2000
M  END
> <Molecule Name>
CVD-0011550

> <SMILES>
CSc1nc2ccccc2n1CCCC#N

$$$$

  CDD

  0  0  0  0  0  0            999 V2000
M  END
> <Molecule Name>
CVD-0011549

> <SMILES>
Cc1nnc(SCC(=O)Nc2sccc2C#N)s1

$$$$

  CDD

  0  0  0  0  0  0            999 V2000
M  END
> <Molecule Name>
CVD-0011548

> <SMILES>
CCN1CCN(CCOCCOc2ccccc2C#N)CC1

$$$$

  CDD

  0  0  0  0  0  0            999 V2000
M  END
> <Molecule Name>
CVD-0011547

> <SMILES>
Clc1ccc(NC(=O)CSCC#N)cc1

$$$$

  CDD

  0  0  0  0  0  0            999 V2000
M  END
> <Molecule Name>
CVD-0011546

> <SMILES>
Cc1nc(C#N)c(NCc2ccc3OCOc3c2)o1

$$$$

  CDD

  0  0  0  0  0  0            999 V2000
M  END
> <Molecule Name>
CVD-0011545

> <SMILES>
Nc1nc(SCC(=O)Nc2ccccc2F)ncc1C#N

$$$$

  CDD

  0  0  0  0  0  0            999 V2000
M  END
> <Molecule Name>
CVD-0011544

> <SMILES>
OC1(CC(=O)c2ccco2)C(=O)N(CCCC#N)c2ccccc12

$$$$

  CDD

  0  0  0  0  0  0            999 V2000
M  END
> <Molecule Name>
CVD-0011543

> <SMILES>
CCOC(=O)C1CCN(CCCOc2ccccc2C#N)CC1

$$$$

  CDD

  0  0  0  0  0  0            999 V2000
M  END
> <Molecule Name>
CVD-0011542

> <SMILES>
Cc1ccnc(SCC(=O)Nc2ccc(cc2)C#N)n1

$$$$

  CDD

  0  0  0  0  0  0            999 V2000
M  END
> <Molecule Name>
CVD-0011541

> <SMILES>
Cn1ccnc1SCC(=O)Nc1ccc(cc1)C#N

$$$$

  CDD

  0  0  0  0  0  0            999 V2000
M  END
> <Molecule Name>
CVD-0011540

> <SMILES>
Cc1cc(C)c(C#N)c(SCCN2CCOCC2)n1

$$$$

  CDD

  0  0  0  0  0  0            999 V2000
M  END
> <Molecule Name>
CVD-0011539

> <SMILES>
COc1ccc(NC(=O)CSCC#N)cc1

$$$$

  CDD

  0  0  0  0  0  0            999 V2000
M  END
> <Molecule Name>
CVD-0011538

> <SMILES>
CCc1nc(C)c(C#N)c2cc(OC)c(OC)cc12

$$$$

  CDD

  0  0  0  0  0  0            999 V2000
M  END
> <Molecule Name>
CVD-0011537

> <SMILES>
CSc1nc(N)nc(SCC(=O)c2ccc3OCOc3c2)c1C#N

$$$$

  CDD

  0  0  0  0  0  0            999 V2000
M  END
> <Molecule Name>
CVD-0011536

> <SMILES>
Cc1ccc(C#N)c(SCC(N)=O)n1

$$$$

  CDD

  0  0  0  0  0  0            999 V2000
M  END
> <Molecule Name>
CVD-0011535

> <SMILES>
CCc1nc(SCC(=O)NCc2ccccc2)[nH]c(=O)c1C#N

$$$$

  CDD

  0  0  0  0  0  0            999 V2000
M  END
> <Molecule Name>
CVD-0011534

> <SMILES>
O=C(CSc1nc[nH]n1)Nc1sccc1C#N

$$$$

  CDD

  0  0  0  0  0  0            999 V2000
M  END
> <Molecule Name>
CVD-0011533

> <SMILES>
CCOC(=O)c1sc(NC(=O)CSc2ncccn2)c(C#N)c1C

$$$$

  CDD

  0  0  0  0  0  0            999 V2000
M  END
> <Molecule Name>
CVD-0011532

> <SMILES>
Nc1nc(SCCCOc2ccc(Cl)cc2)ncc1C#N

$$$$

  CDD

  0  0  0  0  0  0            999 V2000
M  END
> <Molecule Name>
CVD-0011531

> <SMILES>
CSc1nsc(SCC(=O)Nc2ccc(cc2)C#N)n1

$$$$

  CDD

  0  0  0  0  0  0            999 V2000
M  END
> <Molecule Name>
CVD-0011530

> <SMILES>
CSc1nc(N)nc(SCc2ccccn2)c1C#N

$$$$

  CDD

  0  0  0  0  0  0            999 V2000
M  END
> <Molecule Name>
CVD-0011529

> <SMILES>
COCc1cc(C)nc(SCC(=O)NCc2ccccc2)c1C#N

$$$$

  CDD

  0  0  0  0  0  0            999 V2000
M  END
> <Molecule Name>
CVD-0011528

> <SMILES>
Cc1cc(C)c(C#N)c(SCC(=O)Nc2nccs2)n1

$$$$

  CDD

  0  0  0  0  0  0            999 V2000
M  END
> <Molecule Name>
CVD-0011527

> <SMILES>
NC(=O)Cc1nc2ccccc2n1CCC#N

$$$$

  CDD

  0  0  0  0  0  0            999 V2000
M  END
> <Molecule Name>
CVD-0011526

> <SMILES>
Cc1nc(SCC(=O)Nc2sc3CCCc3c2C#N)[nH]c(=O)c1CCO

$$$$

  CDD

  0  0  0  0  0  0            999 V2000
M  END
> <Molecule Name>
CVD-0011525

> <SMILES>
COCCNc1oc(COc2ccc(Br)cc2)nc1C#N

$$$$

  CDD

  0  0  0  0  0  0            999 V2000
M  END
> <Molecule Name>
CVD-0011524

> <SMILES>
Cc1cc(C)c(C#N)c(SCC(=O)OC=C)n1

$$$$

  CDD

  0  0  0  0  0  0            999 V2000
M  END
> <Molecule Name>
CVD-0011523

> <SMILES>
Cc1ccc(C#N)c(SCC(O)=O)n1

$$$$

  CDD

  0  0  0  0  0  0            999 V2000
M  END
> <Molecule Name>
CVD-0011522

> <SMILES>
N#Cc1ccccc1OCCCN1CCOCC1

$$$$

  CDD

  0  0  0  0  0  0            999 V2000
M  END
> <Molecule Name>
CVD-0011521

> <SMILES>
CCOc1ccc2nc(SCCC#N)nc(C)c2c1

$$$$

  CDD

  0  0  0  0  0  0            999 V2000
M  END
> <Molecule Name>
CVD-0011520

> <SMILES>
CC(C)OC(=O)CSc1nc(C)cc(C)c1C#N

$$$$

  CDD

  0  0  0  0  0  0            999 V2000
M  END
> <Molecule Name>
CVD-0011519

> <SMILES>
Cc1ccnc(SCC(=O)Nc2sccc2C#N)n1

$$$$

  CDD

  0  0  0  0  0  0            999 V2000
M  END
> <Molecule Name>
CVD-0011518

> <SMILES>
CCCC(=O)N1CCC(CC1)C(=O)NCC#N

$$$$

  CDD

  0  0  0  0  0  0            999 V2000
M  END
> <Molecule Name>
CVD-0011517

> <SMILES>
COCc1cc(C)nc(SCC(=O)Nc2ccccc2O)c1C#N

$$$$

  CDD

  0  0  0  0  0  0            999 V2000
M  END
> <Molecule Name>
CVD-0011516

> <SMILES>
CSc1nc(N)nc(SCC(=O)c2ccc(Cl)s2)c1C#N

$$$$

  CDD

  0  0  0  0  0  0            999 V2000
M  END
> <Molecule Name>
CVD-0011515

> <SMILES>
Cc1ccc(CCC(=O)C(C#N)c2nc3ccccc3s2)o1

$$$$

  CDD

  0  0  0  0  0  0            999 V2000
M  END
> <Molecule Name>
CVD-0011514

> <SMILES>
O=C(CSc1ncccc1C#N)Nc1nccs1

$$$$

  CDD

  0  0  0  0  0  0            999 V2000
M  END
> <Molecule Name>
CVD-0011513

> <SMILES>
COC(=O)c1ccc2oc(=O)n(CC#N)c2c1

$$$$

  CDD

  0  0  0  0  0  0            999 V2000
M  END
> <Molecule Name>
CVD-0011512

> <SMILES>
CCc1nc(SCC#N)c2oc3ccccc3c2n1

$$$$

  CDD

  0  0  0  0  0  0            999 V2000
M  END
> <Molecule Name>
CVD-0011511

> <SMILES>
CC(=O)CSc1nsc(SCC(C)=O)c1C#N

$$$$

  CDD

  0  0  0  0  0  0            999 V2000
M  END
> <Molecule Name>
CVD-0011510

> <SMILES>
Cc1cc(C)c(C#N)c(SCC(=O)NCC(O)=O)n1

$$$$

  CDD

  0  0  0  0  0  0            999 V2000
M  END
> <Molecule Name>
CVD-0011509

> <SMILES>
CCCOC(=O)CSc1nc(C)c(C)c(C)c1C#N

$$$$

  CDD

  0  0  0  0  0  0            999 V2000
M  END
> <Molecule Name>
CVD-0011508

> <SMILES>
Nc1nc(SCc2nc3ccccc3c(=O)[nH]2)ncc1C#N

$$$$

  CDD

  0  0  0  0  0  0            999 V2000
M  END
> <Molecule Name>
CVD-0011507

> <SMILES>
COC(=O)CC(=O)CSc1nc(C)cc(C)c1C#N

$$$$

  CDD

  0  0  0  0  0  0            999 V2000
M  END
> <Molecule Name>
CVD-0011506

> <SMILES>
COC(=O)CSc1nsc(SCC(=O)OC)c1C#N

$$$$

  CDD

  0  0  0  0  0  0            999 V2000
M  END
> <Molecule Name>
CVD-0011505

> <SMILES>
CCOC(=O)CC(=O)CSc1nc(C)cc(C)c1C#N

$$$$

  CDD

  0  0  0  0  0  0            999 V2000
M  END
> <Molecule Name>
CVD-0011504

> <SMILES>
CCOC(=O)CC(=O)CSc1nc(ccc1C#N)-c1cccnc1

$$$$

  CDD

  0  0  0  0  0  0            999 V2000
M  END
> <Molecule Name>
CVD-0011503

> <SMILES>
N#Cc1ccccc1OCCOCCN1CCOCC1

$$$$

  CDD

  0  0  0  0  0  0            999 V2000
M  END
> <Molecule Name>
CVD-0011502

> <SMILES>
O=C(CCn1c(=O)[nH]c2ccccc2c1=O)NCC#N

$$$$

  CDD

  0  0  0  0  0  0            999 V2000
M  END
> <Molecule Name>
CVD-0011501

> <SMILES>
Cc1sc(NC(=O)CSc2nc(C)c(CCO)c(=O)[nH]2)c(C#N)c1C

$$$$

  CDD

  0  0  0  0  0  0            999 V2000
M  END
> <Molecule Name>
CVD-0011500

> <SMILES>
CC(=O)c1cc(C#N)c(SCC(=O)c2ccc(O)c(O)c2)nc1C

$$$$

  CDD

  0  0  0  0  0  0            999 V2000
M  END
> <Molecule Name>
CVD-0011499

> <SMILES>
CCOC(=O)C(\C#N)=C1/C=CN(C)C(C)=N1

$$$$

  CDD

  0  0  0  0  0  0            999 V2000
M  END
> <Molecule Name>
CVD-0011498

> <SMILES>
CCOC(=O)COc1nc(C)c(Br)c(COC)c1C#N

$$$$

  CDD

  0  0  0  0  0  0            999 V2000
M  END
> <Molecule Name>
CVD-0011497

> <SMILES>
COc1nc(C#N)c(o1)N(C)C

$$$$

  CDD

  0  0  0  0  0  0            999 V2000
M  END
> <Molecule Name>
CVD-0011496

> <SMILES>
Cc1nc(C)c(CC#N)s1

$$$$

  CDD

  0  0  0  0  0  0            999 V2000
M  END
> <Molecule Name>
CVD-0011495

> <SMILES>
Cc1cc(Cl)ccc1NC(=O)CSc1ncccc1C#N

$$$$

  CDD

  0  0  0  0  0  0            999 V2000
M  END
> <Molecule Name>
CVD-0011494

> <SMILES>
Nc1c(cnc2ncnn12)C#N

$$$$

  CDD

  0  0  0  0  0  0            999 V2000
M  END
> <Molecule Name>
CVD-0011493

> <SMILES>
COCc1c(Br)c(C)nc(OCC(O)=O)c1C#N

$$$$

  CDD

  0  0  0  0  0  0            999 V2000
M  END
> <Molecule Name>
CVD-0011492

> <SMILES>
Cc1cc(C(=O)CSc2ncccc2C#N)c(C)n1C

$$$$

  CDD

  0  0  0  0  0  0            999 V2000
M  END
> <Molecule Name>
CVD-0011491

> <SMILES>
CCc1nc(SCC(=O)Nc2ccc(F)cc2)[nH]c(=O)c1C#N

$$$$

  CDD

  0  0  0  0  0  0            999 V2000
M  END
> <Molecule Name>
CVD-0011490

> <SMILES>
CN(C)c1nc(SCC#N)nc(n1)N(C)C

$$$$

  CDD

  0  0  0  0  0  0            999 V2000
M  END
> <Molecule Name>
CVD-0011489

> <SMILES>
Cn1nnnc1SCC#N

$$$$

  CDD

  0  0  0  0  0  0            999 V2000
M  END
> <Molecule Name>
CVD-0011488

> <SMILES>
CSc1nc(C)c(cc1C#N)C(C)=O

$$$$

  CDD

  0  0  0  0  0  0            999 V2000
M  END
> <Molecule Name>
CVD-0011487

> <SMILES>
CC(C)(OCCC#N)C#CCN1CCCC1

$$$$

  CDD

  0  0  0  0  0  0            999 V2000
M  END
> <Molecule Name>
CVD-0011486

> <SMILES>
CCOC(=O)c1csc(CC#N)n1

$$$$

  CDD

  0  0  0  0  0  0            999 V2000
M  END
> <Molecule Name>
CVD-0011485

> <SMILES>
CCc1nc(SC(C)C(=O)Nc2ccc(F)cc2)[nH]c(=O)c1C#N

$$$$

  CDD

  0  0  0  0  0  0            999 V2000
M  END
> <Molecule Name>
CVD-0011484

> <SMILES>
CCc1nc(SC(C)C(=O)Nc2ccc(Cl)cc2)[nH]c(=O)c1C#N

$$$$

  CDD

  0  0  0  0  0  0            999 V2000
M  END
> <Molecule Name>
CVD-0011483

> <SMILES>
CC1(C)Cc2nc(NCCO)c(cc2CO1)C#N

$$$$

  CDD

  0  0  0  0  0  0            999 V2000
M  END
> <Molecule Name>
CVD-0011482

> <SMILES>
CN(C)c1nc(SCC#N)nc(n1)N1CCOCC1

$$$$

  CDD

  0  0  0  0  0  0            999 V2000
M  END
> <Molecule Name>
CVD-0011481

> <SMILES>
CCc1nc(SC(C)C(=O)Nc2cccc(Cl)c2C)[nH]c(=O)c1C#N

$$$$

  CDD

  0  0  0  0  0  0            999 V2000
M  END
> <Molecule Name>
CVD-0011480

> <SMILES>
Cc1nc2ncc(C#N)c(N)n2n1

$$$$

  CDD

  0  0  0  0  0  0            999 V2000
M  END
> <Molecule Name>
CVD-0011479

> <SMILES>
Clc1cccc(OCc2nc(C#N)c(NCC=C)o2)c1

$$$$

  CDD

  0  0  0  0  0  0            999 V2000
M  END
> <Molecule Name>
CVD-0011478

> <SMILES>
CCNc1sc(C(C)=O)c(N)c1C#N

$$$$

  CDD

  0  0  0  0  0  0            999 V2000
M  END
> <Molecule Name>
CVD-0011477

> <SMILES>
Cc1nnc(SCC#N)s1

$$$$

  CDD

  0  0  0  0  0  0            999 V2000
M  END
> <Molecule Name>
CVD-0011476

> <SMILES>
OC(=O)COc1ccc(Cl)cc1C#N

$$$$

  CDD

  0  0  0  0  0  0            999 V2000
M  END
> <Molecule Name>
CVD-0011475

> <SMILES>
CCOC(=O)c1c(N)c(cn1C)C#N

$$$$

  CDD

  0  0  0  0  0  0            999 V2000
M  END
> <Molecule Name>
CVD-0011474

> <SMILES>
CCOCCCNc1oc(COc2ccc(F)cc2)nc1C#N

$$$$

  CDD

  0  0  0  0  0  0            999 V2000
M  END
> <Molecule Name>
CVD-0011473

> <SMILES>
CSc1nc(N)nc(SCC(=O)Nc2ccc(Cl)cc2)c1C#N

$$$$

  CDD

  0  0  0  0  0  0            999 V2000
M  END
> <Molecule Name>
CVD-0011472

> <SMILES>
COC(=O)c1c(N)c(cn1C)C#N

$$$$

  CDD

  0  0  0  0  0  0            999 V2000
M  END
> <Molecule Name>
CVD-0011471

> <SMILES>
Cn1c2nc(N)c(cc2c(=O)n(C)c1=O)C#N

$$$$

  CDD

  0  0  0  0  0  0            999 V2000
M  END
> <Molecule Name>
CVD-0011470

> <SMILES>
CC(=O)c1cc(C#N)c(SCC(=O)OC(C)(C)C)nc1C

$$$$

  CDD

  0  0  0  0  0  0            999 V2000
M  END
> <Molecule Name>
CVD-0011469

> <SMILES>
CNc1oc(COc2ccc(Cl)cc2)nc1C#N

$$$$

  CDD

  0  0  0  0  0  0            999 V2000
M  END
> <Molecule Name>
CVD-0011468

> <SMILES>
CCOC(=O)c1c(C)oc(N)c1C#N

$$$$

  CDD

  0  0  0  0  0  0            999 V2000
M  END
> <Molecule Name>
CVD-0011467

> <SMILES>
CC(=O)c1cc(C#N)c(SCC(=O)Nc2nccs2)nc1C

$$$$

  CDD

  0  0  0  0  0  0            999 V2000
M  END
> <Molecule Name>
CVD-0011466

> <SMILES>
COc1ccc(NC(=O)CSc2ncccc2C#N)cc1

$$$$

  CDD

  0  0  0  0  0  0            999 V2000
M  END
> <Molecule Name>
CVD-0011465

> <SMILES>
Fc1ccc(NC(=O)CSc2ncccc2C#N)cc1

$$$$

  CDD

  0  0  0  0  0  0            999 V2000
M  END
> <Molecule Name>
CVD-0011464

> <SMILES>
COc1ccc(OCCC#N)cc1

$$$$

  CDD

  0  0  0  0  0  0            999 V2000
M  END
> <Molecule Name>
CVD-0011463

> <SMILES>
CCOc1ccc(NC(=O)CSc2ncccc2C#N)cc1

$$$$

  CDD

  0  0  0  0  0  0            999 V2000
M  END
> <Molecule Name>
CVD-0011462

> <SMILES>
O=C1CCCN1CCNCCC#N

$$$$

  CDD

  0  0  0  0  0  0            999 V2000
M  END
> <Molecule Name>
CVD-0011461

> <SMILES>
CC(=O)Nc1ccc(NCCC#N)cc1

$$$$

  CDD

  0  0  0  0  0  0            999 V2000
M  END
> <Molecule Name>
CVD-0011460

> <SMILES>
CN(CCC#N)CC(=O)Nc1nccs1

$$$$

  CDD

  0  0  0  0  0  0            999 V2000
M  END
> <Molecule Name>
CVD-0011459

> <SMILES>
COCc1cc(C)nc(SC)c1C#N

$$$$

  CDD

  0  0  0  0  0  0            999 V2000
M  END
> <Molecule Name>
CVD-0011458

> <SMILES>
CN(C)c1nc(NC(C)(C)C)nc(SCC#N)n1

$$$$

  CDD

  0  0  0  0  0  0            999 V2000
M  END
> <Molecule Name>
CVD-0011457

> <SMILES>
CCCOc1ccc(NC(=O)CSc2ncccc2C#N)cc1

$$$$

  CDD

  0  0  0  0  0  0            999 V2000
M  END
> <Molecule Name>
CVD-0011456

> <SMILES>
Clc1ccc(OCC(=O)NCC#N)cc1

$$$$

  CDD

  0  0  0  0  0  0            999 V2000
M  END
> <Molecule Name>
CVD-0011455

> <SMILES>
Cc1ccc(o1)-c1nn(CCC#N)cc1\C=N\O

$$$$

  CDD

  0  0  0  0  0  0            999 V2000
M  END
> <Molecule Name>
CVD-0011454

> <SMILES>
Cc1nc2ccc(NC(=O)CSc3ncccc3C#N)cc2[nH]1

$$$$

  CDD

  0  0  0  0  0  0            999 V2000
M  END
> <Molecule Name>
CVD-0011453

> <SMILES>
Clc1ccc2[nH]c(SCC#N)nc2c1

$$$$

  CDD

  0  0  0  0  0  0            999 V2000
M  END
> <Molecule Name>
CVD-0011452

> <SMILES>
Cc1nc(C#N)c(NCc2ccco2)o1

$$$$

  CDD

  0  0  0  0  0  0            999 V2000
M  END
> <Molecule Name>
CVD-0011451

> <SMILES>
CC(C)c1nc(CC#N)n[nH]1

$$$$

  CDD

  0  0  0  0  0  0            999 V2000
M  END
> <Molecule Name>
CVD-0011450

> <SMILES>
Fc1ccc(NC(=O)CSc2ncccc2C#N)cc1Cl

$$$$

  CDD

  0  0  0  0  0  0            999 V2000
M  END
> <Molecule Name>
CVD-0011449

> <SMILES>
Clc1ccc2oc(=O)n(CCCC#N)c2c1

$$$$

  CDD

  0  0  0  0  0  0            999 V2000
M  END
> <Molecule Name>
CVD-0011448

> <SMILES>
CC(=O)c1cnc2nc(SCC#N)nn2c1C

$$$$

  CDD

  0  0  0  0  0  0            999 V2000
M  END
> <Molecule Name>
CVD-0011447

> <SMILES>
CC(=O)c1cc(C#N)c(SCC(O)=O)nc1C

$$$$

  CDD

  0  0  0  0  0  0            999 V2000
M  END
> <Molecule Name>
CVD-0011446

> <SMILES>
Clc1ccc(NC(=O)CSc2ncccc2C#N)cc1Cl

$$$$

  CDD

  0  0  0  0  0  0            999 V2000
M  END
> <Molecule Name>
CVD-0011445

> <SMILES>
Nc1nc(SCC(=O)Nc2ccc(Cl)c(Br)c2)ncc1C#N

$$$$

  CDD

  0  0  0  0  0  0            999 V2000
M  END
> <Molecule Name>
CVD-0011444

> <SMILES>
Clc1ccc(Cl)c(c1)S(=O)(=O)CCC#N

$$$$

  CDD

  0  0  0  0  0  0            999 V2000
M  END
> <Molecule Name>
CVD-0011443

> <SMILES>
Clc1ccc(OCCCC(=O)Nc2sccc2C#N)c(Cl)c1

$$$$

  CDD

  0  0  0  0  0  0            999 V2000
M  END
> <Molecule Name>
CVD-0011442

> <SMILES>
CCCN1CC(CC1=O)C(=O)NCC#N

$$$$

  CDD

  0  0  0  0  0  0            999 V2000
M  END
> <Molecule Name>
CVD-0011441

> <SMILES>
Cn1c2ncn(CCCC#N)c2c(=O)n(C)c1=O

$$$$

  CDD

  0  0  0  0  0  0            999 V2000
M  END
> <Molecule Name>
CVD-0011440

> <SMILES>
CC(Sc1ncccc1C#N)C(=O)Nc1nccs1

$$$$

  CDD

  0  0  0  0  0  0            999 V2000
M  END
> <Molecule Name>
CVD-0011439

> <SMILES>
Nc1ccc2nc(SCC#N)sc2c1

$$$$

  CDD

  0  0  0  0  0  0            999 V2000
M  END
> <Molecule Name>
CVD-0011438

> <SMILES>
N#CCSc1nc(nc(n1)N1CCOCC1)N1CCOCC1

$$$$

  CDD

  0  0  0  0  0  0            999 V2000
M  END
> <Molecule Name>
CVD-0011437

> <SMILES>
CCOC(=O)CC(=O)CSc1nccc(N(C)C)c1C#N

$$$$

  CDD

  0  0  0  0  0  0            999 V2000
M  END
> <Molecule Name>
CVD-0011436

> <SMILES>
COCCNc1oc(COc2ccc(F)cc2)nc1C#N

$$$$

  CDD

  0  0  0  0  0  0            999 V2000
M  END
> <Molecule Name>
CVD-0011435

> <SMILES>
CCCOc1ccc(NC(=O)CSc2ncc(C#N)c(N)n2)cc1

$$$$

  CDD

  0  0  0  0  0  0            999 V2000
M  END
> <Molecule Name>
CVD-0011434

> <SMILES>
CC(=O)N1CCC(CC1)C(=O)NCC#N

$$$$

  CDD

  0  0  0  0  0  0            999 V2000
M  END
> <Molecule Name>
CVD-0011433

> <SMILES>
CCc1nnc(NC(=O)CSc2ncccc2C#N)s1

$$$$

  CDD

  0  0  0  0  0  0            999 V2000
M  END
> <Molecule Name>
CVD-0011432

> <SMILES>
COCc1cc(C)nc(SCC(=O)Nc2ccc(F)cc2)c1C#N

$$$$

  CDD

  0  0  0  0  0  0            999 V2000
M  END
> <Molecule Name>
CVD-0011431

> <SMILES>
CC(=O)c1cc(C#N)c(SCC(N)=O)nc1C

$$$$

  CDD

  0  0  0  0  0  0            999 V2000
M  END
> <Molecule Name>
CVD-0011430

> <SMILES>
Cn1c(SCC#N)nc2n(C)c(=O)n(C)c(=O)c12

$$$$

  CDD

  0  0  0  0  0  0            999 V2000
M  END
> <Molecule Name>
CVD-0011429

> <SMILES>
COCc1cc(C)nc(SCC(=O)Nc2ncc(C)s2)c1C#N

$$$$

  CDD

  0  0  0  0  0  0            999 V2000
M  END
> <Molecule Name>
CVD-0011428

> <SMILES>
COCc1cc(C)nc(SCC(=O)Nc2nc(C)cs2)c1C#N

$$$$

  CDD

  0  0  0  0  0  0            999 V2000
M  END
> <Molecule Name>
CVD-0011427

> <SMILES>
CN1CCc2nc(SCC(=O)NC(C)(C)C)c(cc2C1)C#N

$$$$

  CDD

  0  0  0  0  0  0            999 V2000
M  END
> <Molecule Name>
CVD-0011426

> <SMILES>
Cc1nnc(NC(=O)CSc2ncccc2C#N)s1

$$$$

  CDD

  0  0  0  0  0  0            999 V2000
M  END
> <Molecule Name>
CVD-0011425

> <SMILES>
COc1ccc(NC(=O)NC(C)(C)C#N)cc1

$$$$

  CDD

  0  0  0  0  0  0            999 V2000
M  END
> <Molecule Name>
CVD-0011424

> <SMILES>
CCc1nc(SCC(=O)Nc2ccc(F)c(Cl)c2)[nH]c(=O)c1C#N

$$$$

  CDD

  0  0  0  0  0  0            999 V2000
M  END
> <Molecule Name>
CVD-0011423

> <SMILES>
CCc1nc(SCC(=O)OC)[nH]c(=O)c1C#N

$$$$

  CDD

  0  0  0  0  0  0            999 V2000
M  END
> <Molecule Name>
CVD-0011422

> <SMILES>
Nc1nc(SCC(=O)Nc2nccs2)ncc1C#N

$$$$

  CDD

  0  0  0  0  0  0            999 V2000
M  END
> <Molecule Name>
CVD-0011421

> <SMILES>
CC(C)(OCCC#N)C#CCN1CCOCC1

$$$$

  CDD

  0  0  0  0  0  0            999 V2000
M  END
> <Molecule Name>
CVD-0011420

> <SMILES>
Cc1cnc(NC(=O)CSc2ncccc2C#N)s1

$$$$

  CDD

  0  0  0  0  0  0            999 V2000
M  END
> <Molecule Name>
CVD-0011419

> <SMILES>
CCc1nnc(NC(=O)CN(C)CCC#N)s1

$$$$

  CDD

  0  0  0  0  0  0            999 V2000
M  END
> <Molecule Name>
CVD-0011418

> <SMILES>
COCc1cc(C)nc(SCC(O)=O)c1C#N

$$$$

  CDD

  0  0  0  0  0  0            999 V2000
M  END
> <Molecule Name>
CVD-0011417

> <SMILES>
COCc1cc(C)nc(SCC(=O)Nc2cccc(F)c2)c1C#N

$$$$

  CDD

  0  0  0  0  0  0            999 V2000
M  END
> <Molecule Name>
CVD-0011416

> <SMILES>
CCc1nc(SCC(=O)Nc2ccc(OC)cc2)[nH]c(=O)c1C#N

$$$$

  CDD

  0  0  0  0  0  0            999 V2000
M  END
> <Molecule Name>
CVD-0011415

> <SMILES>
CCc1nc(SCC(=O)OC(C)C)[nH]c(=O)c1C#N

$$$$

  CDD

  0  0  0  0  0  0            999 V2000
M  END
> <Molecule Name>
CVD-0011414

> <SMILES>
Cc1csc(NC(=O)CSc2ncccc2C#N)n1

$$$$

  CDD

  0  0  0  0  0  0            999 V2000
M  END
> <Molecule Name>
CVD-0011413

> <SMILES>
N#CCCCOc1ccc2OCOc2c1

$$$$

  CDD

  0  0  0  0  0  0            999 V2000
M  END
> <Molecule Name>
CVD-0011412

> <SMILES>
CCOc1ccc(NC(=O)CSc2nc(CC)c(C#N)c(=O)[nH]2)cc1

$$$$

  CDD

  0  0  0  0  0  0            999 V2000
M  END
> <Molecule Name>
CVD-0011411

> <SMILES>
CCC(=O)Nc1nnc(SCC#N)s1

$$$$

  CDD

  0  0  0  0  0  0            999 V2000
M  END
> <Molecule Name>
CVD-0011410

> <SMILES>
CCOC(=O)CSc1nc(CC)c(C#N)c(=O)[nH]1

$$$$

  CDD

  0  0  0  0  0  0            999 V2000
M  END
> <Molecule Name>
CVD-0011409

> <SMILES>
COCc1cc(C)nc(SCC(=O)NC(C)(C)C)c1C#N

$$$$

  CDD

  0  0  0  0  0  0            999 V2000
M  END
> <Molecule Name>
CVD-0011408

> <SMILES>
Nc1nc(SCC(=O)N2CCCC2)ncc1C#N

$$$$

  CDD

  0  0  0  0  0  0            999 V2000
M  END
> <Molecule Name>
CVD-0011407

> <SMILES>
CSc1nc(N)nc(SCC(=O)C(C)(C)C)c1C#N

$$$$

  CDD

  0  0  0  0  0  0            999 V2000
M  END
> <Molecule Name>
CVD-0011406

> <SMILES>
O=c1n(CCC#N)c(=O)n(CCC#N)c(=O)n1CCC#N

$$$$

  CDD

  0  0  0  0  0  0            999 V2000
M  END
> <Molecule Name>
CVD-0011405

> <SMILES>
COCc1cc(C)nc(SCC(=O)OC(C)C)c1C#N

$$$$

  CDD

  0  0  0  0  0  0            999 V2000
M  END
> <Molecule Name>
CVD-0011404

> <SMILES>
CCc1nc(SCC(=O)NCC(C)C)[nH]c(=O)c1C#N

$$$$

  CDD

  0  0  0  0  0  0            999 V2000
M  END
> <Molecule Name>
CVD-0011403

> <SMILES>
CCc1nc(SCC(=O)NCCOC)[nH]c(=O)c1C#N

$$$$

  CDD

  0  0  0  0  0  0            999 V2000
M  END
> <Molecule Name>
CVD-0011402

> <SMILES>
CCc1nc(SCC(=O)NCc2ccco2)[nH]c(=O)c1C#N

$$$$

  CDD

  0  0  0  0  0  0            999 V2000
M  END
> <Molecule Name>
CVD-0011401

> <SMILES>
Cc1cc(C(=O)CSc2ncc(C#N)c(N)n2)c(C)n1C

$$$$

  CDD

  0  0  0  0  0  0            999 V2000
M  END
> <Molecule Name>
CVD-0011400

> <SMILES>
Cc1ccncc1NC(=O)Cc1ccc(Cl)c(OC2CC(=O)N2)c1

$$$$

  CDD

  0  0  0  0  0  0            999 V2000
M  END
> <Molecule Name>
CVD-0011399

> <SMILES>
CCc1cc(CC(=O)Nc2cnccc2C)cc(OC2CC(=O)N2)c1

$$$$

  CDD

  0  0  0  0  0  0            999 V2000
M  END
> <Molecule Name>
CVD-0011398

> <SMILES>
COc1cc(CC(=O)Nc2cnccc2C)cc(OC2CC(=O)N2)c1

$$$$

  CDD

  0  0  0  0  0  0            999 V2000
M  END
> <Molecule Name>
CVD-0011397

> <SMILES>
Cc1ccncc1NC(=O)Cc1cc(OC2CC(=O)N2)cc(c1)C#C

$$$$

  CDD

  0  0  0  0  0  0            999 V2000
M  END
> <Molecule Name>
CVD-0011396

> <SMILES>
Cc1ccncc1NC(=O)Cc1cc(F)cc(OC2CC(=O)N2)c1

$$$$

  CDD

  0  0  0  0  0  0            999 V2000
M  END
> <Molecule Name>
CVD-0011395

> <SMILES>
Cc1cc(CC(=O)Nc2cnccc2C)cc(OC2CC(=O)N2)c1

$$$$

  CDD

  0  0  0  0  0  0            999 V2000
M  END
> <Molecule Name>
CVD-0011394

> <SMILES>
CCCC(NC(=O)C(C)n1ccn(C)[c]1=[Au+]Cl)C(O)=O

$$$$

  CDD

  0  0  0  0  0  0            999 V2000
M  END
> <Molecule Name>
CVD-0011393

> <SMILES>
Cn1ccn(C(CCS(C)=O)C(O)=O)[c]1=[Au+]Cl

$$$$

  CDD

  0  0  0  0  0  0            999 V2000
M  END
> <Molecule Name>
CVD-0011392

> <SMILES>
Cn1ccn(CCCCC(N)C(O)=O)[c]1=[Au+]Cl

$$$$

  CDD

  0  0  0  0  0  0            999 V2000
M  END
> <Molecule Name>
CVD-0011391

> <SMILES>
Cn1ccn(CC(O)C(O)C(O)C(O)CO)[c]1=[Au+]Cl

$$$$

  CDD

  0  0  0  0  0  0            999 V2000
M  END
> <Molecule Name>
CVD-0011390

> <SMILES>
Cn1ccn(C(CCS(N)(=O)=O)C(O)=O)[c]1=[Au+]Cl

$$$$

  CDD

  0  0  0  0  0  0            999 V2000
M  END
> <Molecule Name>
CVD-0011389

> <SMILES>
Cn1ccn(-c2ncnc3n(cnc23)C2OC(CO)C(O)C2O)[c]1=[Au+]Cl

$$$$

  CDD

  0  0  0  0  0  0            999 V2000
M  END
> <Molecule Name>
CVD-0011388

> <SMILES>
CC(=O)OCc1cnc(c(n1)C#N)-n1ccn(C)[c]1=[Au+]Cl

$$$$

  CDD

  0  0  0  0  0  0            999 V2000
M  END
> <Molecule Name>
CVD-0011387

> <SMILES>
COC(=O)C(Cc1c[nH]cn1)n1ccn(C)[c]1=[Au+]Cl

$$$$

  CDD

  0  0  0  0  0  0            999 V2000
M  END
> <Molecule Name>
CVD-0011386

> <SMILES>
COC(=O)C(CCCCn1ccn(C)[c]1=[Au+]Cl)NC(C)=O

$$$$

  CDD

  0  0  0  0  0  0            999 V2000
M  END
> <Molecule Name>
CVD-0011385

> <SMILES>
Cn1ccn(-c2ncnc3n(C4OC(CO)C(O)C4O)c(Br)nc23)[c]1=[Au+]Cl

$$$$

  CDD

  0  0  0  0  0  0            999 V2000
M  END
> <Molecule Name>
CVD-0011384

> <SMILES>
Cn1ccn([c]1=[Au+]Cl)C(C)(CCC(O)=O)C(O)=O

$$$$

  CDD

  0  0  0  0  0  0            999 V2000
M  END
> <Molecule Name>
CVD-0011383

> <SMILES>
Cn1ccn(-c2cccc(c2)S(=O)(=O)CCO)[c]1=[Au+]Cl

$$$$

  CDD

  0  0  0  0  0  0            999 V2000
M  END
> <Molecule Name>
CVD-0011382

> <SMILES>
Cn1ccn(C(CCCC(O)=O)C(O)=O)[c]1=[Au+]Cl

$$$$

  CDD

  0  0  0  0  0  0            999 V2000
M  END
> <Molecule Name>
CVD-0011381

> <SMILES>
Cn1ccn(-c2nc(Cl)nc3n(cnc23)C2OC(CO)C(O)C2O)[c]1=[Au+]Cl

$$$$

  CDD

  0  0  0  0  0  0            999 V2000
M  END
> <Molecule Name>
CVD-0011380

> <SMILES>
Cn1ccn(C(CO)Cc2c[nH]cn2)[c]1=[Au+]Cl

$$$$

  CDD

  0  0  0  0  0  0            999 V2000
M  END
> <Molecule Name>
CVD-0011379

> <SMILES>
Cn1ccn(C(=O)CN(CC(O)=O)CC(O)=O)[c]1=[Au+]Cl

$$$$

  CDD

  0  0  0  0  0  0            999 V2000
M  END
> <Molecule Name>
CVD-0011378

> <SMILES>
CC(=O)NC(CCCCn1ccn(C)[c]1=[Au+]Cl)C(O)=O

$$$$

  CDD

  0  0  0  0  0  0            999 V2000
M  END
> <Molecule Name>
CVD-0011377

> <SMILES>
COc1cc(OC)nc(n1)-n1ccn(C)[c]1=[Au+]Cl

$$$$

  CDD

  0  0  0  0  0  0            999 V2000
M  END
> <Molecule Name>
CVD-0011376

> <SMILES>
Cn1ccn(C(=N)SCCCS(O)(=O)=O)[c]1=[Au+]Cl

$$$$

  CDD

  0  0  0  0  0  0            999 V2000
M  END
> <Molecule Name>
CVD-0011375

> <SMILES>
Cn1ccn(-c2nc(n[nH]2)C(O)=O)[c]1=[Au+]Cl

$$$$

  CDD

  0  0  0  0  0  0            999 V2000
M  END
> <Molecule Name>
CVD-0011374

> <SMILES>
Cn1ccn(Cc2cc(O)no2)[c]1=[Au+]Cl

$$$$

  CDD

  0  0  0  0  0  0            999 V2000
M  END
> <Molecule Name>
CVD-0011373

> <SMILES>
CC(=O)NC(CC(=O)n1ccn(C)[c]1=[Au+]Cl)C(O)=O

$$$$

  CDD

  0  0  0  0  0  0            999 V2000
M  END
> <Molecule Name>
CVD-0011372

> <SMILES>
Cn1ccn(C(CCCNC(N)=N)C(O)=O)[c]1=[Au+]Cl

$$$$

  CDD

  0  0  0  0  0  0            999 V2000
M  END
> <Molecule Name>
CVD-0011371

> <SMILES>
Cn1ccn(C(CCCNC(N)=O)C(O)=O)[c]1=[Au+]Cl

$$$$

  CDD

  0  0  0  0  0  0            999 V2000
M  END
> <Molecule Name>
CVD-0011370

> <SMILES>
Cn1ccn(C(C(O)=O)c2ccc(O)cc2)[c]1=[Au+]Cl

$$$$

  CDD

  0  0  0  0  0  0            999 V2000
M  END
> <Molecule Name>
CVD-0011369

> <SMILES>
COc1cc(OC)cc(c1)-n1ccn(C)[c]1=[Au+]Cl

$$$$

  CDD

  0  0  0  0  0  0            999 V2000
M  END
> <Molecule Name>
CVD-0011368

> <SMILES>
Cn1ccn(-c2ncnc3n(cnc23)C2OC(CO)C3OC(C)(C)OC23)[c]1=[Au+]Cl

$$$$

  CDD

  0  0  0  0  0  0            999 V2000
M  END
> <Molecule Name>
CVD-0011367

> <SMILES>
Cn1ccn(C(C(O)c2ccc(O)c(O)c2)C(O)=O)[c]1=[Au+]Cl

$$$$

  CDD

  0  0  0  0  0  0            999 V2000
M  END
> <Molecule Name>
CVD-0011366

> <SMILES>
Cn1ccn(C(CCS(C)(=N)=O)C(O)=O)[c]1=[Au+]Cl

$$$$

  CDD

  0  0  0  0  0  0            999 V2000
M  END
> <Molecule Name>
CVD-0011365

> <SMILES>
CC(NC(=O)C(CO)n1ccn(C)[c]1=[Au+]Cl)C(O)=O

$$$$

  CDD

  0  0  0  0  0  0            999 V2000
M  END
> <Molecule Name>
CVD-0011364

> <SMILES>
COc1cc(cc(OC)c1OC)-n1ccn(C)[c]1=[Au+]Cl

$$$$

  CDD

  0  0  0  0  0  0            999 V2000
M  END
> <Molecule Name>
CVD-0011363

> <SMILES>
CC(NC(=O)C(C)n1ccn(C)[c]1=[Au+]Cl)C(O)=O

$$$$

  CDD

  0  0  0  0  0  0            999 V2000
M  END
> <Molecule Name>
CVD-0011362

> <SMILES>
Cn1ccn(CC(O)c2cccc(O)c2)[c]1=[Au+]Cl

$$$$

  CDD

  0  0  0  0  0  0            999 V2000
M  END
> <Molecule Name>
CVD-0011361

> <SMILES>
Cc1ccc2[nH]cc(CC(C(O)=O)n3ccn(C)[c]3=[Au+]Cl)c2c1

$$$$

  CDD

  0  0  0  0  0  0            999 V2000
M  END
> <Molecule Name>
CVD-0011360

> <SMILES>
Cn1ccn(C(=O)CNCCS(O)(=O)=O)[c]1=[Au+]Cl

$$$$

  CDD

  0  0  0  0  0  0            999 V2000
M  END
> <Molecule Name>
CVD-0011359

> <SMILES>
COC(=O)C(C)(Cc1ccc(O)cc1)n1ccn(C)[c]1=[Au+]Cl

$$$$

  CDD

  0  0  0  0  0  0            999 V2000
M  END
> <Molecule Name>
CVD-0011358

> <SMILES>
Cn1ccn(C(Cc2c[nH]cn2)C(O)=O)[c]1=[Au+]Cl

$$$$

  CDD

  0  0  0  0  0  0            999 V2000
M  END
> <Molecule Name>
CVD-0011357

> <SMILES>
Cn1ccn(-c2cc(cc(c2)C(O)=O)C(O)=O)[c]1=[Au+]Cl

$$$$

  CDD

  0  0  0  0  0  0            999 V2000
M  END
> <Molecule Name>
CVD-0011356

> <SMILES>
COC(=O)C(Cc1ccc(O)cc1)n1ccn(C)[c]1=[Au+]Cl

$$$$

  CDD

  0  0  0  0  0  0            999 V2000
M  END
> <Molecule Name>
CVD-0011355

> <SMILES>
Cn1ccn(C(Cc2c[nH]c3ccc(Br)cc23)C(O)=O)[c]1=[Au+]Cl

$$$$

  CDD

  0  0  0  0  0  0            999 V2000
M  END
> <Molecule Name>
CVD-0011354

> <SMILES>
Cn1ccn(C(Cc2c[nH]c3cc(F)ccc23)C(O)=O)[c]1=[Au+]Cl

$$$$

  CDD

  0  0  0  0  0  0            999 V2000
M  END
> <Molecule Name>
CVD-0011353

> <SMILES>
Cn1ccn(-c2nc(=O)[nH]c3n[nH]cc23)[c]1=[Au+]Cl

$$$$

  CDD

  0  0  0  0  0  0            999 V2000
M  END
> <Molecule Name>
CVD-0011352

> <SMILES>
Cn1ccn(C(Cc2nccs2)C(O)=O)[c]1=[Au+]Cl

$$$$

  CDD

  0  0  0  0  0  0            999 V2000
M  END
> <Molecule Name>
CVD-0011351

> <SMILES>
Cn1ccn(-c2ccn(C3CCC(CO)O3)c(=O)n2)[c]1=[Au+]Cl

$$$$

  CDD

  0  0  0  0  0  0            999 V2000
M  END
> <Molecule Name>
CVD-0011350

> <SMILES>
Cn1ccn(-c2ccc3cc(cc(O)c3c2)S(O)(=O)=O)[c]1=[Au+]Cl

$$$$

  CDD

  0  0  0  0  0  0            999 V2000
M  END
> <Molecule Name>
CVD-0011349

> <SMILES>
CNC(=O)C(CCCCn1ccn(C)[c]1=[Au+]Cl)NC(C)=O

$$$$

  CDD

  0  0  0  0  0  0            999 V2000
M  END
> <Molecule Name>
CVD-0011348

> <SMILES>
Cn1ccn(C(Cc2ccc(N)cc2)C(O)=O)[c]1=[Au+]Cl

$$$$

  CDD

  0  0  0  0  0  0            999 V2000
M  END
> <Molecule Name>
CVD-0011347

> <SMILES>
Cn1ccn(C(=N)SCCCSC(N)=N)[c]1=[Au+]Cl

$$$$

  CDD

  0  0  0  0  0  0            999 V2000
M  END
> <Molecule Name>
CVD-0011346

> <SMILES>
Cn1ccn(-c2nc3n(cnc3c(=O)[nH]2)C2CC(O)C(CO)O2)[c]1=[Au+]Cl

$$$$

  CDD

  0  0  0  0  0  0            999 V2000
M  END
> <Molecule Name>
CVD-0011345

> <SMILES>
Cn1ccn([c]1=[Au+]Cl)C(C)(Cc1ccc(O)cc1)C(O)=O

$$$$

  CDD

  0  0  0  0  0  0            999 V2000
M  END
> <Molecule Name>
CVD-0011344

> <SMILES>
Cn1ccn(C(Cc2ccc(O)cc2)C(O)=O)[c]1=[Au+]Cl

$$$$

  CDD

  0  0  0  0  0  0            999 V2000
M  END
> <Molecule Name>
CVD-0011343

> <SMILES>
COc1cc(ccc1O)C(O)Cn1ccn(C)[c]1=[Au+]Cl

$$$$

  CDD

  0  0  0  0  0  0            999 V2000
M  END
> <Molecule Name>
CVD-0011342

> <SMILES>
COc1[nH]c(nc-2ncnc1-2)-n1ccn(C)[c]1=[Au+]Cl

$$$$

  CDD

  0  0  0  0  0  0            999 V2000
M  END
> <Molecule Name>
CVD-0011341

> <SMILES>
Cn1ccn(-c2nc(=O)c3nn[nH]c3[nH]2)[c]1=[Au+]Cl

$$$$

  CDD

  0  0  0  0  0  0            999 V2000
M  END
> <Molecule Name>
CVD-0011340

> <SMILES>
Cn1ccn(-c2nc(C#N)c([nH]2)C#N)[c]1=[Au+]Cl

$$$$

  CDD

  0  0  0  0  0  0            999 V2000
M  END
> <Molecule Name>
CVD-0011339

> <SMILES>
Cn1ccn(C(CSCC(N)C(O)=O)C(O)=O)[c]1=[Au+]Cl

$$$$

  CDD

  0  0  0  0  0  0            999 V2000
M  END
> <Molecule Name>
CVD-0011338

> <SMILES>
COc1ccc2[nH]cc(CC(C(O)=O)n3ccn(C)[c]3=[Au+]Cl)c2c1

$$$$

  CDD

  0  0  0  0  0  0            999 V2000
M  END
> <Molecule Name>
CVD-0011337

> <SMILES>
Cc1ncc(CO)c(Cn2ccn(C)[c]2=[Au+]Cl)c1O

$$$$

  CDD

  0  0  0  0  0  0            999 V2000
M  END
> <Molecule Name>
CVD-0011336

> <SMILES>
Cn1ccn(C(Cc2cc(I)c(O)c(I)c2)C(O)=O)[c]1=[Au+]Cl

$$$$

  CDD

  0  0  0  0  0  0            999 V2000
M  END
> <Molecule Name>
CVD-0011335

> <SMILES>
Cn1ccn(C(Cc2c[nH]c3ccc(O)cc23)C(O)=O)[c]1=[Au+]Cl

$$$$

  CDD

  0  0  0  0  0  0            999 V2000
M  END
> <Molecule Name>
CVD-0011334

> <SMILES>
Cn1ccn(C(Cc2ccc(O)c(I)c2)C(O)=O)[c]1=[Au+]Cl

$$$$

  CDD

  0  0  0  0  0  0            999 V2000
M  END
> <Molecule Name>
CVD-0011333

> <SMILES>
CCCCS(=N)(=O)CCC(C(O)=O)n1ccn(C)[c]1=[Au+]Cl

$$$$

  CDD

  0  0  0  0  0  0            999 V2000
M  END
> <Molecule Name>
CVD-0011332

> <SMILES>
CC(NC(CCCNC(=N)n1ccn(C)[c]1=[Au+]Cl)C(O)=O)C(O)=O

$$$$

  CDD

  0  0  0  0  0  0            999 V2000
M  END
> <Molecule Name>
CVD-0011331

> <SMILES>
Cn1ccn(-c2ccc(CCCC(O)=O)cc2)[c]1=[Au+]Cl

$$$$

  CDD

  0  0  0  0  0  0            999 V2000
M  END
> <Molecule Name>
CVD-0011330

> <SMILES>
Cn1ccn(C(Cc2c[nH]c3ccc(F)cc23)C(O)=O)[c]1=[Au+]Cl

$$$$

  CDD

  0  0  0  0  0  0            999 V2000
M  END
> <Molecule Name>
CVD-0011329

> <SMILES>
Cn1ccn(CC(=O)NC(Cc2ccc(O)cc2)C(O)=O)[c]1=[Au+]Cl

$$$$

  CDD

  0  0  0  0  0  0            999 V2000
M  END
> <Molecule Name>
CVD-0011328

> <SMILES>
Cn1ccn(C(Cc2ccc(O)c(N)c2)C(O)=O)[c]1=[Au+]Cl

$$$$

  CDD

  0  0  0  0  0  0            999 V2000
M  END
> <Molecule Name>
CVD-0011327

> <SMILES>
Cn1ccn(CCc2ccc(O)c(O)c2)[c]1=[Au+]Cl

$$$$

  CDD

  0  0  0  0  0  0            999 V2000
M  END
> <Molecule Name>
CVD-0011326

> <SMILES>
Cn1ccn([c]1=[Au+]Cl)C(C)(Cc1ccc(O)c(O)c1)C(O)=O

$$$$

  CDD

  0  0  0  0  0  0            999 V2000
M  END
> <Molecule Name>
CVD-0011325

> <SMILES>
Cn1ccn(C(Cc2ccc(O)c(O)c2)C(O)=O)[c]1=[Au+]Cl

$$$$

  CDD

  0  0  0  0  0  0            999 V2000
M  END
> <Molecule Name>
CVD-0011324

> <SMILES>
Cn1ccn(CC(O)c2ccc(O)c(O)c2)[c]1=[Au+]Cl

$$$$

  CDD

  0  0  0  0  0  0            999 V2000
M  END
> <Molecule Name>
CVD-0011323

> <SMILES>
Cn1ccn(-c2ccn(C3CC(O)C(CO)O3)c(=O)n2)[c]1=[Au+]Cl

$$$$

  CDD

  0  0  0  0  0  0            999 V2000
M  END
> <Molecule Name>
CVD-0011322

> <SMILES>
CCCC(C(=O)n1ccn(C)[c]1=[Au+]Cl)c1ccc(O)c(O)c1

$$$$

  CDD

  0  0  0  0  0  0            999 V2000
M  END
> <Molecule Name>
CVD-0011321

> <SMILES>
CC1OC(CC1O)n1ccc(nc1=O)-n1ccn(C)[c]1=[Au+]Cl

$$$$

  CDD

  0  0  0  0  0  0            999 V2000
M  END
> <Molecule Name>
CVD-0011320

> <SMILES>
Cn1ccn(Cc2[nH]cc(CCC(O)=O)c2CC(O)=O)[c]1=[Au+]Cl

$$$$

  CDD

  0  0  0  0  0  0            999 V2000
M  END
> <Molecule Name>
CVD-0011319

> <SMILES>
Cn1ccn(CCC(=O)NC(Cc2c[nH]cn2)C(O)=O)[c]1=[Au+]Cl

$$$$

  CDD

  0  0  0  0  0  0            999 V2000
M  END
> <Molecule Name>
CVD-0011318

> <SMILES>
CC(C(O)c1ccc(O)c(O)c1)n1ccn(C)[c]1=[Au+]Cl

$$$$

  CDD

  0  0  0  0  0  0            999 V2000
M  END
> <Molecule Name>
CVD-0011317

> <SMILES>
Cn1ccn(C(Cc2ccc(O)c(F)c2)C(O)=O)[c]1=[Au+]Cl

$$$$

  CDD

  0  0  0  0  0  0            999 V2000
M  END
> <Molecule Name>
CVD-0011316

> <SMILES>
Cn1ccn(CCc2cc(O)c(O)cc2O)[c]1=[Au+]Cl

$$$$

  CDD

  0  0  0  0  0  0            999 V2000
M  END
> <Molecule Name>
CVD-0011315

> <SMILES>
Cn1ccn(C(Cc2cc(O)c(O)cc2O)C(O)=O)[c]1=[Au+]Cl

$$$$

  CDD

  0  0  0  0  0  0            999 V2000
M  END
> <Molecule Name>
CVD-0011314

> <SMILES>
Cn1ccn(C(Cc2cccc(O)c2)C(O)=O)[c]1=[Au+]Cl

$$$$

  CDD

  0  0  0  0  0  0            999 V2000
M  END
> <Molecule Name>
CVD-0011313

> <SMILES>
COC(=O)C(Cc1c[nH]c2ccccc12)n1ccn(C)[c]1=[Au+]Cl

$$$$

  CDD

  0  0  0  0  0  0            999 V2000
M  END
> <Molecule Name>
CVD-0011312

> <SMILES>
Cn1ccn(-c2nc(O)c3nc(O)cnc3n2)[c]1=[Au+]Cl

$$$$

  CDD

  0  0  0  0  0  0            999 V2000
M  END
> <Molecule Name>
CVD-0011311

> <SMILES>
Cn1ccn(-c2ncn(C3OC(CO)C(O)C3O)c(=O)n2)[c]1=[Au+]Cl

$$$$

  CDD

  0  0  0  0  0  0            999 V2000
M  END
> <Molecule Name>
CVD-0011310

> <SMILES>
Cn1ccn(CC(=O)NC(CCC(O)=O)C(O)=O)[c]1=[Au+]Cl

$$$$

  CDD

  0  0  0  0  0  0            999 V2000
M  END
> <Molecule Name>
CVD-0011309

> <SMILES>
Cn1ccn(C(Cc2c[nH]c3ccccc23)C(O)=O)[c]1=[Au+]Cl

$$$$

  CDD

  0  0  0  0  0  0            999 V2000
M  END
> <Molecule Name>
CVD-0011308

> <SMILES>
Cn1ccn(-c2ncnc3n(cnc23)C2CC(O)C(CO)O2)[c]1=[Au+]Cl

$$$$

  CDD

  0  0  0  0  0  0            999 V2000
M  END
> <Molecule Name>
CVD-0011307

> <SMILES>
Cn1ccn(-c2ccn(C3OC(CO)C(O)C3O)c(=O)n2)[c]1=[Au+]Cl

$$$$

  CDD

  0  0  0  0  0  0            999 V2000
M  END
> <Molecule Name>
CVD-0011306

> <SMILES>
Cn1ccn(-c2ccc3cc(cc(c3c2)S(O)(=O)=O)S(O)(=O)=O)[c]1=[Au+]Cl

$$$$

  CDD

  0  0  0  0  0  0            999 V2000
M  END
> <Molecule Name>
CVD-0011305

> <SMILES>
Cn1ccn(-c2cccc(c2)S(=O)(=O)c2cccc(N)c2)[c]1=[Au+]Cl

$$$$

  CDD

  0  0  0  0  0  0            999 V2000
M  END
> <Molecule Name>
CVD-0011304

> <SMILES>
CC(C)(C)OC(=O)N1CC[C@@](CC=C)(C1)C(=O)N1CCC[C@@H](C1)NC(=O)c1cc(ccc1OCC=C)C(F)(F)F

$$$$

  CDD

  0  0  0  0  0  0            999 V2000
M  END
> <Molecule Name>
CVD-0011303

> <SMILES>
Clc1cccc(c1)C1(CCCC1)NC(=O)[C@@H]1CCc2[nH]ncc2C1

$$$$

  CDD

  0  0  0  0  0  0            999 V2000
M  END
> <Molecule Name>
CVD-0011302

> <SMILES>
O=C(N[C@@H]1CCCc2sccc12)c1ccc(=O)n(n1)-c1ccccc1

$$$$

  CDD

  0  0  0  0  0  0            999 V2000
M  END
> <Molecule Name>
CVD-0011301

> <SMILES>
Nc1ccc2CN([C@H]3CCC(=O)N(CC(=O)N4CC[C@H]5COC[C@H]5C4)C3=O)C(=O)c2c1

$$$$

  CDD

  0  0  0  0  0  0            999 V2000
M  END
> <Molecule Name>
CVD-0011300

> <SMILES>
COc1ccc(cc1)C1(CNC(=O)[C@@H]2CN(C)C(=O)c3ccccc23)CCOCC1

$$$$

  CDD

  0  0  0  0  0  0            999 V2000
M  END
> <Molecule Name>
CVD-0011299

> <SMILES>
NC(=O)c1cccc(NC(=O)[C@]2(CCC(=O)NC2)c2ccccc2)c1

$$$$

  CDD

  0  0  0  0  0  0            999 V2000
M  END
> <Molecule Name>
CVD-0011298

> <SMILES>
CC1(C)C[C@H](NC(=O)c2ccc(=O)n(n2)-c2ccccc2)c2ccc(F)cc2O1

$$$$

  CDD

  0  0  0  0  0  0            999 V2000
M  END
> <Molecule Name>
CVD-0011297

> <SMILES>
COc1ccc(F)c2[nH]c(cc12)C(=O)N1CCNC(=O)CC1

$$$$

  CDD

  0  0  0  0  0  0            999 V2000
M  END
> <Molecule Name>
CVD-0011296

> <SMILES>
CCO[C@@H]1C[C@H](O)C11CCN(CC1)C(=O)c1c(C)c2ccccc2[nH]c1=O

$$$$

  CDD

  0  0  0  0  0  0            999 V2000
M  END
> <Molecule Name>
CVD-0011295

> <SMILES>
CN1C[C@@H](C(=O)NCC2(CCOCC2)c2cccc(c2)C(F)(F)F)c2ccccc2C1=O

$$$$

  CDD

  0  0  0  0  0  0            999 V2000
M  END
> <Molecule Name>
CVD-0011294

> <SMILES>
Clc1cccc(CC(=O)Nc2cncc3OCOc23)c1

$$$$

  CDD

  0  0  0  0  0  0            999 V2000
M  END
> <Molecule Name>
CVD-0011293

> <SMILES>
Clc1cccc(CC(=O)Nc2cncc3OCCOc23)c1

$$$$

  CDD

  0  0  0  0  0  0            999 V2000
M  END
> <Molecule Name>
CVD-0011292

> <SMILES>
Clc1cccc(CC(=O)Nc2cncc3CCCCc23)c1

$$$$

  CDD

  0  0  0  0  0  0            999 V2000
M  END
> <Molecule Name>
CVD-0011291

> <SMILES>
CC(NC(=O)C(=O)NC1CC1)c1cc(Cl)cc(c1)-c1ccc(cc1)S(N)(=O)=O

$$$$

  CDD

  0  0  0  0  0  0            999 V2000
M  END
> <Molecule Name>
CVD-0011290

> <SMILES>
CC(NC(=O)C(=O)NCc1ccccn1)c1cc(Cl)cc(c1)-c1ccc(cc1)S(N)(=O)=O

$$$$

  CDD

  0  0  0  0  0  0            999 V2000
M  END
> <Molecule Name>
CVD-0011289

> <SMILES>
CC(NC(=O)C(N)=O)c1cc(Cl)cc(c1)-c1ccc(cc1)S(N)(=O)=O

$$$$

  CDD

  0  0  0  0  0  0            999 V2000
M  END
> <Molecule Name>
CVD-0011288

> <SMILES>
CC(NC(=O)C=O)c1cc(Cl)cc(c1)-c1ccc(cc1)S(N)(=O)=O

$$$$

  CDD

  0  0  0  0  0  0            999 V2000
M  END
> <Molecule Name>
CVD-0011287

> <SMILES>
OC(=O)c1cccc(NC(=O)[C@@H]2[C@H]3C[C@H]4OC(=O)[C@@H]2[C@H]4C3)c1

$$$$

  CDD

  0  0  0  0  0  0            999 V2000
M  END
> <Molecule Name>
CVD-0011286

> <SMILES>
OC(=O)CCC(=O)Nc1ccc(N2CCCCC2)c(c1)C(O)=O

$$$$

  CDD

  0  0  0  0  0  0            999 V2000
M  END
> <Molecule Name>
CVD-0011285

> <SMILES>
COC(=O)c1cccc(NC(=O)[C@H]2CC=CC[C@H]2C(O)=O)c1C

$$$$

  CDD

  0  0  0  0  0  0            999 V2000
M  END
> <Molecule Name>
CVD-0011284

> <SMILES>
OC(=O)[C@@H]1[C@H]2C[C@H](C=C2)[C@H]1C(=O)Nc1cccc(c1)C(O)=O

$$$$

  CDD

  0  0  0  0  0  0            999 V2000
M  END
> <Molecule Name>
CVD-0011283

> <SMILES>
NC(=O)CI

$$$$

  CDD

  0  0  0  0  0  0            999 V2000
M  END
> <Molecule Name>
CVD-0011282

> <SMILES>
COc1ccc2C(=O)C(=O)Nc2c1F

$$$$

  CDD

  0  0  0  0  0  0            999 V2000
M  END
> <Molecule Name>
CVD-0011281

> <SMILES>
CCCN(CCC)CCNC(=O)Nc1cn(CC(C)C)c(=O)c2ccccc12

$$$$

  CDD

  0  0  0  0  0  0            999 V2000
M  END
> <Molecule Name>
CVD-0011280

> <SMILES>
CC(C)Cn1cc(NC(=O)NCCCN2CCCCC2C)c2ccccc2c1=O

$$$$

  CDD

  0  0  0  0  0  0            999 V2000
M  END
> <Molecule Name>
CVD-0011279

> <SMILES>
CC(C)Cn1cc(NC(=O)Nc2ccc(CN3CCC(C)CC3)cc2)c2ccccc2c1=O

$$$$

  CDD

  0  0  0  0  0  0            999 V2000
M  END
> <Molecule Name>
CVD-0011278

> <SMILES>
CC(C)Cn1cc(NC(=O)Nc2ccc(cc2)N2CCC(C)CC2)c2ccccc2c1=O

$$$$

  CDD

  0  0  0  0  0  0            999 V2000
M  END
> <Molecule Name>
CVD-0011277

> <SMILES>
CC(C)Cn1cc(NC(=O)NCCN2CCC(C)CC2)c2ccccc2c1=O

$$$$

  CDD

  0  0  0  0  0  0            999 V2000
M  END
> <Molecule Name>
CVD-0011276

> <SMILES>
CC(C)Cn1cc(NC(=O)NCCCN2CCC(C)CC2)c2ccccc2c1=O

$$$$

  CDD

  0  0  0  0  0  0            999 V2000
M  END
> <Molecule Name>
CVD-0011275

> <SMILES>
Cn1cc(NC(=O)NCCc2ccsc2)c2ccccc2c1=O

$$$$

  CDD

  0  0  0  0  0  0            999 V2000
M  END
> <Molecule Name>
CVD-0011274

> <SMILES>
CC(C)Cn1cc(NC(=O)NCCc2ccc(Cl)cc2)c2ccccc2c1=O

$$$$

  CDD

  0  0  0  0  0  0            999 V2000
M  END
> <Molecule Name>
CVD-0011273

> <SMILES>
CCCN(CCC)CCNC(=O)Nc1cn(C)c(=O)c2ccccc12

$$$$

  CDD

  0  0  0  0  0  0            999 V2000
M  END
> <Molecule Name>
CVD-0011272

> <SMILES>
Cn1cc(NC(=O)NCCN2CCCC2)c2ccccc2c1=O

$$$$

  CDD

  0  0  0  0  0  0            999 V2000
M  END
> <Molecule Name>
CVD-0011271

> <SMILES>
Cn1cc(NC(=O)NCCc2ccc(Cl)cc2)c2ccccc2c1=O

$$$$

  CDD

  0  0  0  0  0  0            999 V2000
M  END
> <Molecule Name>
CVD-0011270

> <SMILES>
O=C(NS(=O)(=O)c1ccc2CS(=O)(=O)Cc2c1)c1cncnc1

$$$$

  CDD

  0  0  0  0  0  0            999 V2000
M  END
> <Molecule Name>
CVD-0011269

> <SMILES>
COc1ccccc1C(NC(=O)c1cncnc1)c1ccccc1

$$$$

  CDD

  0  0  0  0  0  0            999 V2000
M  END
> <Molecule Name>
CVD-0011268

> <SMILES>
CC(C)c1ccc2NC(=O)C(NC(=O)c3cncnc3)c2c1

$$$$

  CDD

  0  0  0  0  0  0            999 V2000
M  END
> <Molecule Name>
CVD-0011267

> <SMILES>
Cc1cccc(C(CC(O)=O)NC(=O)c2cncnc2)c1C

$$$$

  CDD

  0  0  0  0  0  0            999 V2000
M  END
> <Molecule Name>
CVD-0011266

> <SMILES>
CC1(C)CCC(CC1)(NC(=O)c1cncnc1)C(O)=O

$$$$

  CDD

  0  0  0  0  0  0            999 V2000
M  END
> <Molecule Name>
CVD-0011265

> <SMILES>
CC1(C)CCCC(C1)(NC(=O)c1cncnc1)C(O)=O

$$$$

  CDD

  0  0  0  0  0  0            999 V2000
M  END
> <Molecule Name>
CVD-0011264

> <SMILES>
OCCC(NC(=O)c1cncnc1)c1cccc2ccccc12

$$$$

  CDD

  0  0  0  0  0  0            999 V2000
M  END
> <Molecule Name>
CVD-0011263

> <SMILES>
O=C(NC1CCCCC1NS(=O)(=O)C1CC1)c1cncnc1

$$$$

  CDD

  0  0  0  0  0  0            999 V2000
M  END
> <Molecule Name>
CVD-0011262

> <SMILES>
Clc1ccc(cc1)C(NC(=O)c1cncnc1)c1cccc(c1)C#N

$$$$

  CDD

  0  0  0  0  0  0            999 V2000
M  END
> <Molecule Name>
CVD-0011261

> <SMILES>
O=C(NCC(c1c[nH]c2ccccc12)c1ccccc1)c1cncnc1

$$$$

  CDD

  0  0  0  0  0  0            999 V2000
M  END
> <Molecule Name>
CVD-0011260

> <SMILES>
COc1ccc2C(CC(C)Cc2c1)NC(=O)c1cncnc1

$$$$

  CDD

  0  0  0  0  0  0            999 V2000
M  END
> <Molecule Name>
CVD-0011259

> <SMILES>
OC(=O)CCCc1ccc(CNC(=O)c2cncnc2)cc1

$$$$

  CDD

  0  0  0  0  0  0            999 V2000
M  END
> <Molecule Name>
CVD-0011258

> <SMILES>
OC(=O)C(NC(=O)c1cncnc1)C1=CCC2CC2C1

$$$$

  CDD

  0  0  0  0  0  0            999 V2000
M  END
> <Molecule Name>
CVD-0011257

> <SMILES>
CCc1ccc(cc1)C(NC(=O)c1cncnc1)C#N

$$$$

  CDD

  0  0  0  0  0  0            999 V2000
M  END
> <Molecule Name>
CVD-0011256

> <SMILES>
COc1cccc(CC(NC(=O)c2cncnc2)C2CC2)c1

$$$$

  CDD

  0  0  0  0  0  0            999 V2000
M  END
> <Molecule Name>
CVD-0011255

> <SMILES>
COC(=O)C(NC(=O)c1cncnc1)c1ccc(cc1)C(C)(C)C

$$$$

  CDD

  0  0  0  0  0  0            999 V2000
M  END
> <Molecule Name>
CVD-0011254

> <SMILES>
O=C(NCc1noc2CCCCCc12)c1cncnc1

$$$$

  CDD

  0  0  0  0  0  0            999 V2000
M  END
> <Molecule Name>
CVD-0011253

> <SMILES>
Cc1ccc(CNC(=O)c2ccccc2NC(=O)c2cncnc2)cc1

$$$$

  CDD

  0  0  0  0  0  0            999 V2000
M  END
> <Molecule Name>
CVD-0011252

> <SMILES>
Clc1ccccc1C(=O)Nc1cccc(c1)S(=O)(=O)NC(=O)c1cncnc1

$$$$

  CDD

  0  0  0  0  0  0            999 V2000
M  END
> <Molecule Name>
CVD-0011251

> <SMILES>
O=C(NCc1nnc(CCc2ccccc2)o1)c1cncnc1

$$$$

  CDD

  0  0  0  0  0  0            999 V2000
M  END
> <Molecule Name>
CVD-0011250

> <SMILES>
CCC(C)C(NC(=O)c1cncnc1)c1cccc(c1)C(O)=O

$$$$

  CDD

  0  0  0  0  0  0            999 V2000
M  END
> <Molecule Name>
CVD-0011249

> <SMILES>
O=C(NS(=O)(=O)C1CS(=O)(=O)c2ccccc12)c1cncnc1

$$$$

  CDD

  0  0  0  0  0  0            999 V2000
M  END
> <Molecule Name>
CVD-0011248

> <SMILES>
OC(=O)c1ccc2CC(Cc2c1)NC(=O)c1cncnc1

$$$$

  CDD

  0  0  0  0  0  0            999 V2000
M  END
> <Molecule Name>
CVD-0011247

> <SMILES>
Clc1ccc(cc1)C(=O)Nc1cccc(c1)S(=O)(=O)NC(=O)c1cncnc1

$$$$

  CDD

  0  0  0  0  0  0            999 V2000
M  END
> <Molecule Name>
CVD-0011246

> <SMILES>
CCC1CCC(CC1)(NC(=O)c1cncnc1)C(O)=O

$$$$

  CDD

  0  0  0  0  0  0            999 V2000
M  END
> <Molecule Name>
CVD-0011245

> <SMILES>
OC(=O)c1cc2CCCc2c(c1)S(=O)(=O)NC(=O)c1cncnc1

$$$$

  CDD

  0  0  0  0  0  0            999 V2000
M  END
> <Molecule Name>
CVD-0011244

> <SMILES>
Oc1ccc2ccccc2c1CNC(=O)c1cncnc1

$$$$

  CDD

  0  0  0  0  0  0            999 V2000
M  END
> <Molecule Name>
CVD-0011243

> <SMILES>
OC(=O)Cc1ccccc1CS(=O)(=O)NC(=O)c1cncnc1

$$$$

  CDD

  0  0  0  0  0  0            999 V2000
M  END
> <Molecule Name>
CVD-0011242

> <SMILES>
COC(=O)C1(Cc2ccccc2C1)NC(=O)c1cncnc1

$$$$

  CDD

  0  0  0  0  0  0            999 V2000
M  END
> <Molecule Name>
CVD-0011241

> <SMILES>
CC12CC3(C)CC(C1)(CC(C2)(C3)C(O)=O)NC(=O)c1cncnc1

$$$$

  CDD

  0  0  0  0  0  0            999 V2000
M  END
> <Molecule Name>
CVD-0011240

> <SMILES>
O=C(Nc1ccccc1S(=O)(=O)NC(=O)c1cncnc1)C1CC1

$$$$

  CDD

  0  0  0  0  0  0            999 V2000
M  END
> <Molecule Name>
CVD-0011239

> <SMILES>
Nc1ccccc1Cc1ccccc1NC(=O)c1cncnc1

$$$$

  CDD

  0  0  0  0  0  0            999 V2000
M  END
> <Molecule Name>
CVD-0011238

> <SMILES>
OCC1(CCCc2ccccc12)NC(=O)c1cncnc1

$$$$

  CDD

  0  0  0  0  0  0            999 V2000
M  END
> <Molecule Name>
CVD-0011237

> <SMILES>
O=C(NC(c1ccccc1)c1ccccn1)c1cncnc1

$$$$

  CDD

  0  0  0  0  0  0            999 V2000
M  END
> <Molecule Name>
CVD-0011236

> <SMILES>
O=C(NCC1(CCCCC1)c1ccc2OCOc2c1)c1cncnc1

$$$$

  CDD

  0  0  0  0  0  0            999 V2000
M  END
> <Molecule Name>
CVD-0011235

> <SMILES>
O=C(NCc1cccc(c1)N1CCCCC1=O)c1cncnc1

$$$$

  CDD

  0  0  0  0  0  0            999 V2000
M  END
> <Molecule Name>
CVD-0011234

> <SMILES>
Cc1cccc(C(NC(=O)c2cncnc2)C(O)=O)c1C

$$$$

  CDD

  0  0  0  0  0  0            999 V2000
M  END
> <Molecule Name>
CVD-0011233

> <SMILES>
Cc1cc(cc(C(O)=O)c1C)S(=O)(=O)NC(=O)c1cncnc1

$$$$

  CDD

  0  0  0  0  0  0            999 V2000
M  END
> <Molecule Name>
CVD-0011232

> <SMILES>
CC(NC(=O)c1cncnc1)c1cccc(NC(=O)Cc2ccccc2F)c1

$$$$

  CDD

  0  0  0  0  0  0            999 V2000
M  END
> <Molecule Name>
CVD-0011231

> <SMILES>
OCC1(Cc2ccccc2C1)NC(=O)c1cncnc1

$$$$

  CDD

  0  0  0  0  0  0            999 V2000
M  END
> <Molecule Name>
CVD-0011230

> <SMILES>
COC(=O)C(NC(=O)c1cncnc1)c1ccc2ccccc2c1

$$$$

  CDD

  0  0  0  0  0  0            999 V2000
M  END
> <Molecule Name>
CVD-0011229

> <SMILES>
CC(C)c1ccc(cc1)C(CC(O)=O)NC(=O)c1cncnc1

$$$$

  CDD

  0  0  0  0  0  0            999 V2000
M  END
> <Molecule Name>
CVD-0011228

> <SMILES>
O=C(Nc1ccc(CN2C(=O)CCCC2=O)cc1)c1cncnc1

$$$$

  CDD

  0  0  0  0  0  0            999 V2000
M  END
> <Molecule Name>
CVD-0011227

> <SMILES>
O=C(NC(C1CCCCC1)c1cccnc1)c1cncnc1

$$$$

  CDD

  0  0  0  0  0  0            999 V2000
M  END
> <Molecule Name>
CVD-0011226

> <SMILES>
OC(=O)c1cc2CCCCc2c(c1)S(=O)(=O)NC(=O)c1cncnc1

$$$$

  CDD

  0  0  0  0  0  0            999 V2000
M  END
> <Molecule Name>
CVD-0011225

> <SMILES>
CC1(C)CCc2onc(CNC(=O)c3cncnc3)c2C1

$$$$

  CDD

  0  0  0  0  0  0            999 V2000
M  END
> <Molecule Name>
CVD-0011224

> <SMILES>
CC(C)CC(=O)Nc1cccc(CNC(=O)c2cncnc2)c1

$$$$

  CDD

  0  0  0  0  0  0            999 V2000
M  END
> <Molecule Name>
CVD-0011223

> <SMILES>
CCCC(=O)Nc1cccc(CNC(=O)c2cncnc2)c1

$$$$

  CDD

  0  0  0  0  0  0            999 V2000
M  END
> <Molecule Name>
CVD-0011222

> <SMILES>
O=C(Nc1ccccc1)Nc1cccc(CNC(=O)c2cncnc2)c1

$$$$

  CDD

  0  0  0  0  0  0            999 V2000
M  END
> <Molecule Name>
CVD-0011221

> <SMILES>
Brc1ccc(cc1)C(Cc1ccccn1)NC(=O)c1cncnc1

$$$$

  CDD

  0  0  0  0  0  0            999 V2000
M  END
> <Molecule Name>
CVD-0011220

> <SMILES>
O=C(NC(CCc1ccccc1)c1ccccn1)c1cncnc1

$$$$

  CDD

  0  0  0  0  0  0            999 V2000
M  END
> <Molecule Name>
CVD-0011219

> <SMILES>
Clc1ccc(cc1)S(=O)(=O)Nc1cccc(CNC(=O)c2cncnc2)c1

$$$$

  CDD

  0  0  0  0  0  0            999 V2000
M  END
> <Molecule Name>
CVD-0011218

> <SMILES>
Cc1cccc(NC(=O)CNC(=O)c2cncnc2)c1C

$$$$

  CDD

  0  0  0  0  0  0            999 V2000
M  END
> <Molecule Name>
CVD-0011217

> <SMILES>
OC(=O)CCc1cccc(c1)S(=O)(=O)NC(=O)c1cncnc1

$$$$

  CDD

  0  0  0  0  0  0            999 V2000
M  END
> <Molecule Name>
CVD-0011216

> <SMILES>
O=C(NCc1cccc(c1)-c1ccccn1)c1cncnc1

$$$$

  CDD

  0  0  0  0  0  0            999 V2000
M  END
> <Molecule Name>
CVD-0011215

> <SMILES>
Brc1cc2CCCC(=O)Nc2cc1S(=O)(=O)NC(=O)c1cncnc1

$$$$

  CDD

  0  0  0  0  0  0            999 V2000
M  END
> <Molecule Name>
CVD-0011214

> <SMILES>
O=C(NS(=O)(=O)c1cccc(c1)C1CCNCC1)c1cncnc1

$$$$

  CDD

  0  0  0  0  0  0            999 V2000
M  END
> <Molecule Name>
CVD-0011213

> <SMILES>
Cc1cccc(NC(=O)Nc2cccc(CNC(=O)c3cncnc3)c2)c1

$$$$

  CDD

  0  0  0  0  0  0            999 V2000
M  END
> <Molecule Name>
CVD-0011212

> <SMILES>
CC1(C)CCC(NC(=O)c2cncnc2)(C(O)=O)c2ccccc12

$$$$

  CDD

  0  0  0  0  0  0            999 V2000
M  END
> <Molecule Name>
CVD-0011211

> <SMILES>
Cc1ccc(cc1)C(NC(=O)c1cncnc1)c1ccccn1

$$$$

  CDD

  0  0  0  0  0  0            999 V2000
M  END
> <Molecule Name>
CVD-0011210

> <SMILES>
COC(=O)CC(NC(=O)c1cncnc1)c1ccc(cc1)C(C)(C)C

$$$$

  CDD

  0  0  0  0  0  0            999 V2000
M  END
> <Molecule Name>
CVD-0011209

> <SMILES>
OC(=O)C1(Cc2ccccc2C1)NC(=O)c1cncnc1

$$$$

  CDD

  0  0  0  0  0  0            999 V2000
M  END
> <Molecule Name>
CVD-0011208

> <SMILES>
O=C(NC1CCCc2c1cnn2C1CCCC1)c1cncnc1

$$$$

  CDD

  0  0  0  0  0  0            999 V2000
M  END
> <Molecule Name>
CVD-0011207

> <SMILES>
Cc1cc(C)cc(c1)C(NC(=O)c1cncnc1)c1cccnc1

$$$$

  CDD

  0  0  0  0  0  0            999 V2000
M  END
> <Molecule Name>
CVD-0011206

> <SMILES>
O=C(NCc1cccc(NS(=O)(=O)C2CC2)c1)c1cncnc1

$$$$

  CDD

  0  0  0  0  0  0            999 V2000
M  END
> <Molecule Name>
CVD-0011205

> <SMILES>
O=C(Nc1ccccc1Cc1cccnc1)c1cncnc1

$$$$

  CDD

  0  0  0  0  0  0            999 V2000
M  END
> <Molecule Name>
CVD-0011204

> <SMILES>
O=C(Nc1cccc(CNC(=O)c2cncnc2)c1)C1CCCC1

$$$$

  CDD

  0  0  0  0  0  0            999 V2000
M  END
> <Molecule Name>
CVD-0011203

> <SMILES>
OC(=O)C1(Cc2ccc(Br)cc2C1)NC(=O)c1cncnc1

$$$$

  CDD

  0  0  0  0  0  0            999 V2000
M  END
> <Molecule Name>
CVD-0011202

> <SMILES>
CC1CCC(CO)(NC(=O)c2cncnc2)c2ccccc12

$$$$

  CDD

  0  0  0  0  0  0            999 V2000
M  END
> <Molecule Name>
CVD-0011201

> <SMILES>
OC(=O)C12CC3CC(CC(C3)(C1)NC(=O)c1cncnc1)C2

$$$$

  CDD

  0  0  0  0  0  0            999 V2000
M  END
> <Molecule Name>
CVD-0011200

> <SMILES>
CCC(C)C(=O)Nc1cccc(CNC(=O)c2cncnc2)c1

$$$$

  CDD

  0  0  0  0  0  0            999 V2000
M  END
> <Molecule Name>
CVD-0011199

> <SMILES>
O=C(Nc1ccc(CC2CC(=O)NC2=O)cc1)c1cncnc1

$$$$

  CDD

  0  0  0  0  0  0            999 V2000
M  END
> <Molecule Name>
CVD-0011198

> <SMILES>
OC(=O)C(NC(=O)c1cncnc1)c1ccc2ccccc2c1

$$$$

  CDD

  0  0  0  0  0  0            999 V2000
M  END
> <Molecule Name>
CVD-0011197

> <SMILES>
OC(=O)C1(CCCCc2ccccc12)NC(=O)c1cncnc1

$$$$

  CDD

  0  0  0  0  0  0            999 V2000
M  END
> <Molecule Name>
CVD-0011196

> <SMILES>
O=C(NC(c1ccccc1)c1ccc2[nH]cnc2c1)c1cncnc1

$$$$

  CDD

  0  0  0  0  0  0            999 V2000
M  END
> <Molecule Name>
CVD-0011195

> <SMILES>
CC(C(O)=O)c1ccccc1S(=O)(=O)NC(=O)c1cncnc1

$$$$

  CDD

  0  0  0  0  0  0            999 V2000
M  END
> <Molecule Name>
CVD-0011194

> <SMILES>
COc1cccc(CC(NC(=O)c2cncnc2)c2ccccc2)c1

$$$$

  CDD

  0  0  0  0  0  0            999 V2000
M  END
> <Molecule Name>
CVD-0011193

> <SMILES>
O=C(CC1CCC2CNCCC2C1)NC(=O)c1cncnc1

$$$$

  CDD

  0  0  0  0  0  0            999 V2000
M  END
> <Molecule Name>
CVD-0011192

> <SMILES>
Cc1cccc(c1)C(NC(=O)c1cncnc1)c1ccccn1

$$$$

  CDD

  0  0  0  0  0  0            999 V2000
M  END
> <Molecule Name>
CVD-0011191

> <SMILES>
CC(C)(C)c1ccc(cc1)C(CC(O)=O)NC(=O)c1cncnc1

$$$$

  CDD

  0  0  0  0  0  0            999 V2000
M  END
> <Molecule Name>
CVD-0011190

> <SMILES>
Oc1ccc(CC(NC(=O)c2cncnc2)c2nc3ccccc3[nH]2)cc1

$$$$

  CDD

  0  0  0  0  0  0            999 V2000
M  END
> <Molecule Name>
CVD-0011189

> <SMILES>
COc1cccc(CC(NC(=O)c2cncnc2)c2cccc(OC)c2)c1

$$$$

  CDD

  0  0  0  0  0  0            999 V2000
M  END
> <Molecule Name>
CVD-0011188

> <SMILES>
O=C(NCc1cccc(NC(=O)c2ccccc2)c1)c1cncnc1

$$$$

  CDD

  0  0  0  0  0  0            999 V2000
M  END
> <Molecule Name>
CVD-0011187

> <SMILES>
COC(=O)C(NC(=O)c1cncnc1)c1cccc2ccccc12

$$$$

  CDD

  0  0  0  0  0  0            999 V2000
M  END
> <Molecule Name>
CVD-0011186

> <SMILES>
O=C(Nc1cccc(CNC(=O)c2cncnc2)c1)C1CCCCC1

$$$$

  CDD

  0  0  0  0  0  0            999 V2000
M  END
> <Molecule Name>
CVD-0011185

> <SMILES>
O=C(Nc1ccc(cc1)C1CC(=O)NC(=O)C1)c1cncnc1

$$$$

  CDD

  0  0  0  0  0  0            999 V2000
M  END
> <Molecule Name>
CVD-0011184

> <SMILES>
Oc1ccc(Cc2ccccc2NC(=O)c2cncnc2)cc1

$$$$

  CDD

  0  0  0  0  0  0            999 V2000
M  END
> <Molecule Name>
CVD-0011183

> <SMILES>
COc1cccc(c1)C1(CNC(=O)c2cncnc2)CCCC1

$$$$

  CDD

  0  0  0  0  0  0            999 V2000
M  END
> <Molecule Name>
CVD-0011182

> <SMILES>
O=C(Nc1ccccc1Sc1nc2ccccc2[nH]1)c1cncnc1

$$$$

  CDD

  0  0  0  0  0  0            999 V2000
M  END
> <Molecule Name>
CVD-0011181

> <SMILES>
Cc1ccc(cc1)C(=O)Nc1cccc(CNC(=O)c2cncnc2)c1

$$$$

  CDD

  0  0  0  0  0  0            999 V2000
M  END
> <Molecule Name>
CVD-0011180

> <SMILES>
Fc1cccc(c1)C(=O)Nc1cccc(CNC(=O)c2cncnc2)c1

$$$$

  CDD

  0  0  0  0  0  0            999 V2000
M  END
> <Molecule Name>
CVD-0011179

> <SMILES>
CC(NC(=O)c1cncnc1)c1cccc(NC(=O)c2ccccc2)c1

$$$$

  CDD

  0  0  0  0  0  0            999 V2000
M  END
> <Molecule Name>
CVD-0011178

> <SMILES>
OC(=O)C(NC(=O)c1cncnc1)c1cccc2ccccc12

$$$$

  CDD

  0  0  0  0  0  0            999 V2000
M  END
> <Molecule Name>
CVD-0011177

> <SMILES>
Fc1ccc(cc1)C(=O)Nc1cccc(CNC(=O)c2cncnc2)c1

$$$$

  CDD

  0  0  0  0  0  0            999 V2000
M  END
> <Molecule Name>
CVD-0011176

> <SMILES>
OC(=O)c1ccc(cc1)-c1cccc(CNC(=O)c2cncnc2)c1

$$$$

  CDD

  0  0  0  0  0  0            999 V2000
M  END
> <Molecule Name>
CVD-0011175

> <SMILES>
OC(=O)c1ccccc1Sc1ccc(cc1)S(=O)(=O)NC(=O)c1cncnc1

$$$$

  CDD

  0  0  0  0  0  0            999 V2000
M  END
> <Molecule Name>
CVD-0011174

> <SMILES>
Cc1ccc(cc1)C(NC(=O)c1cncnc1)c1cccc(c1)S(C)(=O)=O

$$$$

  CDD

  0  0  0  0  0  0            999 V2000
M  END
> <Molecule Name>
CVD-0011173

> <SMILES>
Cc1ccc(C(NC(=O)c2cncnc2)c2cccc(c2)S(C)(=O)=O)c(C)c1

$$$$

  CDD

  0  0  0  0  0  0            999 V2000
M  END
> <Molecule Name>
CVD-0011172

> <SMILES>
O=C(Nc1cccc(c1)C1CC(=O)NC(=O)C1)c1cncnc1

$$$$

  CDD

  0  0  0  0  0  0            999 V2000
M  END
> <Molecule Name>
CVD-0011171

> <SMILES>
CCc1ccc(cc1)C(NC(=O)c1cncnc1)c1cccc(c1)S(C)(=O)=O

$$$$

  CDD

  0  0  0  0  0  0            999 V2000
M  END
> <Molecule Name>
CVD-0011170

> <SMILES>
CC(NC(=O)c1cncnc1)c1nc(no1)C1CCCC1

$$$$

  CDD

  0  0  0  0  0  0            999 V2000
M  END
> <Molecule Name>
CVD-0011169

> <SMILES>
Brc1ccccc1C(NC(=O)c1cncnc1)C#N

$$$$

  CDD

  0  0  0  0  0  0            999 V2000
M  END
> <Molecule Name>
CVD-0011168

> <SMILES>
OC(=O)C(Cc1cnc2ccccc2c1)NC(=O)c1cncnc1

$$$$

  CDD

  0  0  0  0  0  0            999 V2000
M  END
> <Molecule Name>
CVD-0011167

> <SMILES>
Cc1cccc2c(CC(NC(=O)c3cncnc3)C(O)=O)c[nH]c12

$$$$

  CDD

  0  0  0  0  0  0            999 V2000
M  END
> <Molecule Name>
CVD-0011166

> <SMILES>
COc1ccc2ccccc2c1CNC(=O)c1cncnc1

$$$$

  CDD

  0  0  0  0  0  0            999 V2000
M  END
> <Molecule Name>
CVD-0011165

> <SMILES>
Cc1nc(no1)C1(CCCCC1)NC(=O)c1cncnc1

$$$$

  CDD

  0  0  0  0  0  0            999 V2000
M  END
> <Molecule Name>
CVD-0011164

> <SMILES>
O=C(NS(=O)(=O)c1ccc2NC(=O)CCc2c1)c1cncnc1

$$$$

  CDD

  0  0  0  0  0  0            999 V2000
M  END
> <Molecule Name>
CVD-0011163

> <SMILES>
COCC(NC(=O)c1cncnc1)c1cc2ccccc2s1

$$$$

  CDD

  0  0  0  0  0  0            999 V2000
M  END
> <Molecule Name>
CVD-0011162

> <SMILES>
COc1ccc2cc(CC(C)NC(=O)c3cncnc3)ccc2c1

$$$$

  CDD

  0  0  0  0  0  0            999 V2000
M  END
> <Molecule Name>
CVD-0011161

> <SMILES>
OC(=O)C(CNC(=O)c1cncnc1)Cc1cccc(F)c1

$$$$

  CDD

  0  0  0  0  0  0            999 V2000
M  END
> <Molecule Name>
CVD-0011160

> <SMILES>
O=C(NS(=O)(=O)c1cccc2ncccc12)c1cncnc1

$$$$

  CDD

  0  0  0  0  0  0            999 V2000
M  END
> <Molecule Name>
CVD-0011159

> <SMILES>
O=C(CNC(=O)c1cncnc1)Nc1cccc(c1)C#C

$$$$

  CDD

  0  0  0  0  0  0            999 V2000
M  END
> <Molecule Name>
CVD-0011158

> <SMILES>
OCC(CNC(=O)c1cncnc1)Cc1ccc(Cl)cc1

$$$$

  CDD

  0  0  0  0  0  0            999 V2000
M  END
> <Molecule Name>
CVD-0011157

> <SMILES>
CC(C)CC(NC(=O)c1cncnc1)c1nnn[nH]1

$$$$

  CDD

  0  0  0  0  0  0            999 V2000
M  END
> <Molecule Name>
CVD-0011156

> <SMILES>
Cc1cccc(c1)C(CC(O)=O)NC(=O)c1cncnc1

$$$$

  CDD

  0  0  0  0  0  0            999 V2000
M  END
> <Molecule Name>
CVD-0011155

> <SMILES>
Cc1cccc(c1)C(CCO)NC(=O)c1cncnc1

$$$$

  CDD

  0  0  0  0  0  0            999 V2000
M  END
> <Molecule Name>
CVD-0011154

> <SMILES>
COc1ccccc1C(NC(=O)c1cncnc1)c1ccccn1

$$$$

  CDD

  0  0  0  0  0  0            999 V2000
M  END
> <Molecule Name>
CVD-0011153

> <SMILES>
CC(C)(NC(=O)c1cncnc1)C(=O)NCC1CCCCC1

$$$$

  CDD

  0  0  0  0  0  0            999 V2000
M  END
> <Molecule Name>
CVD-0011152

> <SMILES>
COC(=O)CCc1cccc(CNC(=O)c2cncnc2)c1

$$$$

  CDD

  0  0  0  0  0  0            999 V2000
M  END
> <Molecule Name>
CVD-0011151

> <SMILES>
O=C(NCc1cccc(c1)-c1cccnc1)c1cncnc1

$$$$

  CDD

  0  0  0  0  0  0            999 V2000
M  END
> <Molecule Name>
CVD-0011150

> <SMILES>
Cc1cc(ccc1Cl)C(NC(=O)c1cncnc1)C(O)=O

$$$$

  CDD

  0  0  0  0  0  0            999 V2000
M  END
> <Molecule Name>
CVD-0011149

> <SMILES>
O=C(NC(=O)c1cncnc1)C1CNc2ccccc2C1

$$$$

  CDD

  0  0  0  0  0  0            999 V2000
M  END
> <Molecule Name>
CVD-0011148

> <SMILES>
OC(=O)Cc1ccc(CNC(=O)c2cncnc2)cc1

$$$$

  CDD

  0  0  0  0  0  0            999 V2000
M  END
> <Molecule Name>
CVD-0011147

> <SMILES>
COc1cccc(c1)C(NC(=O)c1cncnc1)c1cccc(OC)c1

$$$$

  CDD

  0  0  0  0  0  0            999 V2000
M  END
> <Molecule Name>
CVD-0011146

> <SMILES>
CCOC(=O)C1(Cc2ccccc2C1)NC(=O)c1cncnc1

$$$$

  CDD

  0  0  0  0  0  0            999 V2000
M  END
> <Molecule Name>
CVD-0011145

> <SMILES>
OC(=O)C(CNC(=O)c1cncnc1)Cc1ccc(F)cc1

$$$$

  CDD

  0  0  0  0  0  0            999 V2000
M  END
> <Molecule Name>
CVD-0011144

> <SMILES>
Cc1sc(C)c(C(O)=O)c1CNC(=O)c1cncnc1

$$$$

  CDD

  0  0  0  0  0  0            999 V2000
M  END
> <Molecule Name>
CVD-0011143

> <SMILES>
COc1ccc2CCC(CO)(NC(=O)c3cncnc3)c2c1

$$$$

  CDD

  0  0  0  0  0  0            999 V2000
M  END
> <Molecule Name>
CVD-0011142

> <SMILES>
OC(=O)C(CNC(=O)c1cncnc1)Cc1ccc(Cl)cc1

$$$$

  CDD

  0  0  0  0  0  0            999 V2000
M  END
> <Molecule Name>
CVD-0011141

> <SMILES>
COC(=O)CC(NC(=O)c1cncnc1)c1ccc(C)cc1

$$$$

  CDD

  0  0  0  0  0  0            999 V2000
M  END
> <Molecule Name>
CVD-0011140

> <SMILES>
O=C(NC1CCCC1Oc1cnn(Cc2ccccc2)c1)c1cncnc1

$$$$

  CDD

  0  0  0  0  0  0            999 V2000
M  END
> <Molecule Name>
CVD-0011139

> <SMILES>
Cc1ccc(cc1S(=O)(=O)NC(=O)c1cncnc1)C#N

$$$$

  CDD

  0  0  0  0  0  0            999 V2000
M  END
> <Molecule Name>
CVD-0011138

> <SMILES>
COC(=O)CC(NC(=O)c1cncnc1)c1cccc2ccccc12

$$$$

  CDD

  0  0  0  0  0  0            999 V2000
M  END
> <Molecule Name>
CVD-0011137

> <SMILES>
Brc1ccc2[nH]cc(CCNC(=O)c3cncnc3)c2c1

$$$$

  CDD

  0  0  0  0  0  0            999 V2000
M  END
> <Molecule Name>
CVD-0011136

> <SMILES>
OC(=O)Cc1cccc(c1)C(=O)NC(=O)c1cncnc1

$$$$

  CDD

  0  0  0  0  0  0            999 V2000
M  END
> <Molecule Name>
CVD-0011135

> <SMILES>
O=C(NS(=O)(=O)c1cnc2ccccc2c1)c1cncnc1

$$$$

  CDD

  0  0  0  0  0  0            999 V2000
M  END
> <Molecule Name>
CVD-0011134

> <SMILES>
Cc1c(CNC(=O)c2cncnc2)oc2ccc(cc12)C(O)=O

$$$$

  CDD

  0  0  0  0  0  0            999 V2000
M  END
> <Molecule Name>
CVD-0011133

> <SMILES>
Brc1ccc(cc1)C(NC(=O)c1cncnc1)C#N

$$$$

  CDD

  0  0  0  0  0  0            999 V2000
M  END
> <Molecule Name>
CVD-0011132

> <SMILES>
CCN(C)C(=O)CC1CCCCC1NC(=O)c1cncnc1

$$$$

  CDD

  0  0  0  0  0  0            999 V2000
M  END
> <Molecule Name>
CVD-0011131

> <SMILES>
O=C(NC(=O)c1cncnc1)C1CCNc2ccccc12

$$$$

  CDD

  0  0  0  0  0  0            999 V2000
M  END
> <Molecule Name>
CVD-0011130

> <SMILES>
Brc1cc(ccc1C#N)S(=O)(=O)NC(=O)c1cncnc1

$$$$

  CDD

  0  0  0  0  0  0            999 V2000
M  END
> <Molecule Name>
CVD-0011129

> <SMILES>
Cc1cc(ccc1C#N)S(=O)(=O)NC(=O)c1cncnc1

$$$$

  CDD

  0  0  0  0  0  0            999 V2000
M  END
> <Molecule Name>
CVD-0011128

> <SMILES>
O=C(NS(=O)(=O)c1cccc2cccnc12)c1cncnc1

$$$$

  CDD

  0  0  0  0  0  0            999 V2000
M  END
> <Molecule Name>
CVD-0011127

> <SMILES>
CP(C)(=O)C1CCCCC1NC(=O)c1cncnc1

$$$$

  CDD

  0  0  0  0  0  0            999 V2000
M  END
> <Molecule Name>
CVD-0011126

> <SMILES>
Cc1ccc(cc1)C(CC(O)=O)NC(=O)c1cncnc1

$$$$

  CDD

  0  0  0  0  0  0            999 V2000
M  END
> <Molecule Name>
CVD-0011125

> <SMILES>
O=C(Nc1cccc(Cc2nn[nH]n2)c1)c1cncnc1

$$$$

  CDD

  0  0  0  0  0  0            999 V2000
M  END
> <Molecule Name>
CVD-0011124

> <SMILES>
COC(=O)CCc1ccccc1CNC(=O)c1cncnc1

$$$$

  CDD

  0  0  0  0  0  0            999 V2000
M  END
> <Molecule Name>
CVD-0011123

> <SMILES>
O=C(NCc1cc(=O)[nH]c2ccccc12)c1cncnc1

$$$$

  CDD

  0  0  0  0  0  0            999 V2000
M  END
> <Molecule Name>
CVD-0011122

> <SMILES>
OC(=O)C1CCC(F)(CNC(=O)c2cncnc2)CC1

$$$$

  CDD

  0  0  0  0  0  0            999 V2000
M  END
> <Molecule Name>
CVD-0011121

> <SMILES>
OC(Cc1ccccc1)C(NC(=O)c1cncnc1)C(O)=O

$$$$

  CDD

  0  0  0  0  0  0            999 V2000
M  END
> <Molecule Name>
CVD-0011120

> <SMILES>
OC(=O)C(NC(=O)c1cncnc1)c1ccccc1Br

$$$$

  CDD

  0  0  0  0  0  0            999 V2000
M  END
> <Molecule Name>
CVD-0011119

> <SMILES>
Fc1ccc(cc1)C(Cn1cnc2ccccc12)NC(=O)c1cncnc1

$$$$

  CDD

  0  0  0  0  0  0            999 V2000
M  END
> <Molecule Name>
CVD-0011118

> <SMILES>
Cc1ccc(c(c1)C(O)=O)S(=O)(=O)NC(=O)c1cncnc1

$$$$

  CDD

  0  0  0  0  0  0            999 V2000
M  END
> <Molecule Name>
CVD-0011117

> <SMILES>
OC(=O)C(CNC(=O)c1cncnc1)Cc1cccc(O)c1

$$$$

  CDD

  0  0  0  0  0  0            999 V2000
M  END
> <Molecule Name>
CVD-0011116

> <SMILES>
CNC(=O)C(CNC(=O)c1cncnc1)Cc1ccc(F)cc1C

$$$$

  CDD

  0  0  0  0  0  0            999 V2000
M  END
> <Molecule Name>
CVD-0011115

> <SMILES>
O=C(NS(=O)(=O)C1CCOc2ccccc12)c1cncnc1

$$$$

  CDD

  0  0  0  0  0  0            999 V2000
M  END
> <Molecule Name>
CVD-0011114

> <SMILES>
O=C(NCC1=CS(=O)(=O)c2ccccc12)c1cncnc1

$$$$

  CDD

  0  0  0  0  0  0            999 V2000
M  END
> <Molecule Name>
CVD-0011113

> <SMILES>
CC1CCc2ccccc2N1S(=O)(=O)NC(=O)c1cncnc1

$$$$

  CDD

  0  0  0  0  0  0            999 V2000
M  END
> <Molecule Name>
CVD-0011112

> <SMILES>
O=C(NS(=O)(=O)c1cccc2NCCCc12)c1cncnc1

$$$$

  CDD

  0  0  0  0  0  0            999 V2000
M  END
> <Molecule Name>
CVD-0011111

> <SMILES>
OC(=O)C(CCc1ccc(F)cc1)NC(=O)c1cncnc1

$$$$

  CDD

  0  0  0  0  0  0            999 V2000
M  END
> <Molecule Name>
CVD-0011110

> <SMILES>
Cc1ccc(cc1S(=O)(=O)NC(=O)c1cncnc1)C(O)=O

$$$$

  CDD

  0  0  0  0  0  0            999 V2000
M  END
> <Molecule Name>
CVD-0011109

> <SMILES>
CN(C)C(=O)CC1CCCCC1NC(=O)c1cncnc1

$$$$

  CDD

  0  0  0  0  0  0            999 V2000
M  END
> <Molecule Name>
CVD-0011108

> <SMILES>
O=C(NC(=O)c1cncnc1)C1CNCC1c1ccccc1

$$$$

  CDD

  0  0  0  0  0  0            999 V2000
M  END
> <Molecule Name>
CVD-0011107

> <SMILES>
O=C(NCCC1C(=O)Nc2ccccc12)c1cncnc1

$$$$

  CDD

  0  0  0  0  0  0            999 V2000
M  END
> <Molecule Name>
CVD-0011106

> <SMILES>
CC(NC(=O)c1cncnc1)c1nc(no1)C1CCCCC1

$$$$

  CDD

  0  0  0  0  0  0            999 V2000
M  END
> <Molecule Name>
CVD-0011105

> <SMILES>
OC(=O)C(NC(=O)c1cncnc1)c1cccc(Br)c1

$$$$

  CDD

  0  0  0  0  0  0            999 V2000
M  END
> <Molecule Name>
CVD-0011104

> <SMILES>
Cc1c(cc(Br)cc1S(=O)(=O)NC(=O)c1cncnc1)C(O)=O

$$$$

  CDD

  0  0  0  0  0  0            999 V2000
M  END
> <Molecule Name>
CVD-0011103

> <SMILES>
Cc1cc(CNC2CC2)cc(c1C)S(=O)(=O)NC(=O)c1cncnc1

$$$$

  CDD

  0  0  0  0  0  0            999 V2000
M  END
> <Molecule Name>
CVD-0011102

> <SMILES>
COc1cc(Cl)ccc1C(NC(=O)c1cncnc1)c1ccccc1

$$$$

  CDD

  0  0  0  0  0  0            999 V2000
M  END
> <Molecule Name>
CVD-0011101

> <SMILES>
OC(=O)C1(CCc2c1ccc(F)c2Br)NC(=O)c1cncnc1

$$$$

  CDD

  0  0  0  0  0  0            999 V2000
M  END
> <Molecule Name>
CVD-0011100

> <SMILES>
O=C(NS(=O)(=O)c1ccc2NCCCc2c1)c1cncnc1

$$$$

  CDD

  0  0  0  0  0  0            999 V2000
M  END
> <Molecule Name>
CVD-0011099

> <SMILES>
COc1cccc(c1)C(C)S(=O)(=O)NC(=O)c1cncnc1

$$$$

  CDD

  0  0  0  0  0  0            999 V2000
M  END
> <Molecule Name>
CVD-0011098

> <SMILES>
COC(=O)C1C(Cc2ccccc12)NC(=O)c1cncnc1

$$$$

  CDD

  0  0  0  0  0  0            999 V2000
M  END
> <Molecule Name>
CVD-0011097

> <SMILES>
OC(=O)C(NC(=O)c1cncnc1)c1ccccc1I

$$$$

  CDD

  0  0  0  0  0  0            999 V2000
M  END
> <Molecule Name>
CVD-0011096

> <SMILES>
CCc1ccc(cc1)C(CC)(NC(=O)c1cncnc1)C(O)=O

$$$$

  CDD

  0  0  0  0  0  0            999 V2000
M  END
> <Molecule Name>
CVD-0011095

> <SMILES>
COc1ccccc1NS(=O)(=O)c1ccc(NC(=O)c2cncnc2)cc1

$$$$

  CDD

  0  0  0  0  0  0            999 V2000
M  END
> <Molecule Name>
CVD-0011094

> <SMILES>
O=C(NS(=O)(=O)c1ccc2ccccc2n1)c1cncnc1

$$$$

  CDD

  0  0  0  0  0  0            999 V2000
M  END
> <Molecule Name>
CVD-0011093

> <SMILES>
O=C(NS(=O)(=O)c1ccc2OCCCc2c1)c1cncnc1

$$$$

  CDD

  0  0  0  0  0  0            999 V2000
M  END
> <Molecule Name>
CVD-0011092

> <SMILES>
O=C(Nc1ccccc1C(=O)NCc1ccc2OCOc2c1)c1cncnc1

$$$$

  CDD

  0  0  0  0  0  0            999 V2000
M  END
> <Molecule Name>
CVD-0011091

> <SMILES>
O=C(NS(=O)(=O)c1ccccc1C#N)c1cncnc1

$$$$

  CDD

  0  0  0  0  0  0            999 V2000
M  END
> <Molecule Name>
CVD-0011090

> <SMILES>
OC(=O)c1cc2C(CCc2c(c1)C(O)=O)NC(=O)c1cncnc1

$$$$

  CDD

  0  0  0  0  0  0            999 V2000
M  END
> <Molecule Name>
CVD-0011089

> <SMILES>
CSc1ccc(cc1)C1(CCOC1)NC(=O)c1cncnc1

$$$$

  CDD

  0  0  0  0  0  0            999 V2000
M  END
> <Molecule Name>
CVD-0011088

> <SMILES>
Fc1cccc(c1)C(NC(=O)c1cncnc1)c1ccccn1

$$$$

  CDD

  0  0  0  0  0  0            999 V2000
M  END
> <Molecule Name>
CVD-0011087

> <SMILES>
OC(=O)C(NC(=O)c1cncnc1)c1cccc(I)c1

$$$$

  CDD

  0  0  0  0  0  0            999 V2000
M  END
> <Molecule Name>
CVD-0011086

> <SMILES>
Clc1cccc(c1)C(NC(=O)c1cncnc1)c1ccccn1

$$$$

  CDD

  0  0  0  0  0  0            999 V2000
M  END
> <Molecule Name>
CVD-0011085

> <SMILES>
Fc1ccc(cc1)C(NC(=O)c1cncnc1)c1ccccn1

$$$$

  CDD

  0  0  0  0  0  0            999 V2000
M  END
> <Molecule Name>
CVD-0011084

> <SMILES>
COc1cccc(c1)C1(CNC(=O)c2cncnc2)CC1

$$$$

  CDD

  0  0  0  0  0  0            999 V2000
M  END
> <Molecule Name>
CVD-0011083

> <SMILES>
Cc1ccc(cc1S(=O)(=O)NC(=O)c1cncnc1)S(C)(=O)=O

$$$$

  CDD

  0  0  0  0  0  0            999 V2000
M  END
> <Molecule Name>
CVD-0011082

> <SMILES>
COc1cccc(c1)C(NC(=O)c1cncnc1)c1ccccn1

$$$$

  CDD

  0  0  0  0  0  0            999 V2000
M  END
> <Molecule Name>
CVD-0011081

> <SMILES>
Cc1cc(CNC(=O)c2cncnc2)ccc1S(C)(=O)=O

$$$$

  CDD

  0  0  0  0  0  0            999 V2000
M  END
> <Molecule Name>
CVD-0011080

> <SMILES>
COc1cccc(C(CNC(=O)c2cncnc2)c2c[nH]c3ccccc23)c1OC

$$$$

  CDD

  0  0  0  0  0  0            999 V2000
M  END
> <Molecule Name>
CVD-0011079

> <SMILES>
O=C(NS(=O)(=O)c1cccc(c1)C#N)c1cncnc1

$$$$

  CDD

  0  0  0  0  0  0            999 V2000
M  END
> <Molecule Name>
CVD-0011078

> <SMILES>
Cc1cccc2c(CC(NC(=O)c3cncnc3)C(O)=O)coc12

$$$$

  CDD

  0  0  0  0  0  0            999 V2000
M  END
> <Molecule Name>
CVD-0011077

> <SMILES>
OC(=O)c1cc2CCC(NC(=O)c3cncnc3)c2cc1C(O)=O

$$$$

  CDD

  0  0  0  0  0  0            999 V2000
M  END
> <Molecule Name>
CVD-0011076

> <SMILES>
O=C(NCc1cccc(NC(=O)c2ccccn2)c1)c1cncnc1

$$$$

  CDD

  0  0  0  0  0  0            999 V2000
M  END
> <Molecule Name>
CVD-0011075

> <SMILES>
OC(=O)C(Cc1coc2ccccc12)NC(=O)c1cncnc1

$$$$

  CDD

  0  0  0  0  0  0            999 V2000
M  END
> <Molecule Name>
CVD-0011074

> <SMILES>
COc1ccc2c(CCCC2(NC(=O)c2cncnc2)C(O)=O)c1

$$$$

  CDD

  0  0  0  0  0  0            999 V2000
M  END
> <Molecule Name>
CVD-0011073

> <SMILES>
O=C(NC(C1CCCOC1)c1nnc(o1)C1CC1)c1cncnc1

$$$$

  CDD

  0  0  0  0  0  0            999 V2000
M  END
> <Molecule Name>
CVD-0011072

> <SMILES>
COC(=O)CC(NC(=O)c1cncnc1)c1ccc2ccccc2c1

$$$$

  CDD

  0  0  0  0  0  0            999 V2000
M  END
> <Molecule Name>
CVD-0011071

> <SMILES>
COc1ccc(cc1)C(NC(=O)c1cncnc1)c1cccc(c1)S(C)(=O)=O

$$$$

  CDD

  0  0  0  0  0  0            999 V2000
M  END
> <Molecule Name>
CVD-0011070

> <SMILES>
Cn1cnc(c1)C#CC1(CC1)NC(=O)Nc1cccnc1

$$$$

  CDD

  0  0  0  0  0  0            999 V2000
M  END
> <Molecule Name>
CVD-0011069

> <SMILES>
CCN(C(=O)Nc1cnccc1C)c1cc(Cl)cc(OC2CC(=O)N2)c1

$$$$

  CDD

  0  0  0  0  0  0            999 V2000
M  END
> <Molecule Name>
CVD-0011068

> <SMILES>
CN(C(=O)Nc1cnccc1C)c1cc(Cl)cc(OC2CC(=O)N2)c1

$$$$

  CDD

  0  0  0  0  0  0            999 V2000
M  END
> <Molecule Name>
CVD-0011067

> <SMILES>
COC(=O)c1cc2c(nc1C)n(CCc1ccccc1)c(=O)[nH]c2=O

$$$$

  CDD

  0  0  0  0  0  0            999 V2000
M  END
> <Molecule Name>
CVD-0011066

> <SMILES>
CCOC(=O)c1cc2c(nc1C)n(CC)c(=O)[nH]c2=O

$$$$

  CDD

  0  0  0  0  0  0            999 V2000
M  END
> <Molecule Name>
CVD-0011065

> <SMILES>
COCCOC(=O)c1cc2c(nc1C)n(CCc1ccccc1)c(=O)[nH]c2=O

$$$$

  CDD

  0  0  0  0  0  0            999 V2000
M  END
> <Molecule Name>
CVD-0011064

> <SMILES>
COc1ccc(Cn2c3nc(C)c(cc3c(=O)[nH]c2=O)C(=O)OC(C)C)cc1

$$$$

  CDD

  0  0  0  0  0  0            999 V2000
M  END
> <Molecule Name>
CVD-0011063

> <SMILES>
CC(C)OC(=O)c1cc2c(nc1C)n(CCc1ccccc1)c(=O)[nH]c2=O

$$$$

  CDD

  0  0  0  0  0  0            999 V2000
M  END
> <Molecule Name>
CVD-0011062

> <SMILES>
CC(C)OC(=O)c1cc2c(nc1C)n(Cc1ccccc1)c(=O)[nH]c2=O

$$$$

  CDD

  0  0  0  0  0  0            999 V2000
M  END
> <Molecule Name>
CVD-0011061

> <SMILES>
CCOC(=O)c1cc2c(nc1C)n(CCc1ccccc1)c(=O)[nH]c2=O

$$$$

  CDD

  0  0  0  0  0  0            999 V2000
M  END
> <Molecule Name>
CVD-0011060

> <SMILES>
CCn1c2nc(C)c(cc2c(=O)[nH]c1=O)C(=O)OC(C)C

$$$$

  CDD

  0  0  0  0  0  0            999 V2000
M  END
> <Molecule Name>
CVD-0011059

> <SMILES>
Cc1cccc(N2CN(CCO)Cn3c2nc(C)c(C)c3=O)c1C

$$$$

  CDD

  0  0  0  0  0  0            999 V2000
M  END
> <Molecule Name>
CVD-0011058

> <SMILES>
CCc1c(C)nc2N(CN(Cc3cccnc3)Cn2c1=O)c1ccc(F)cc1

$$$$

  CDD

  0  0  0  0  0  0            999 V2000
M  END
> <Molecule Name>
CVD-0011057

> <SMILES>
Cc1nc2N(CN(CCN3CCOCC3)Cn2c(=O)c1C)c1ccc(F)cc1

$$$$

  CDD

  0  0  0  0  0  0            999 V2000
M  END
> <Molecule Name>
CVD-0011056

> <SMILES>
CC(C)C(=O)Nc1c(C#N)c(C)nn1-c1nc(C)cc(C)n1

$$$$

  CDD

  0  0  0  0  0  0            999 V2000
M  END
> <Molecule Name>
CVD-0011055

> <SMILES>
Cc1cc(C)nc(n1)-n1ncc(C#N)c1NC(=O)C(c1ccccc1)c1ccccc1

$$$$

  CDD

  0  0  0  0  0  0            999 V2000
M  END
> <Molecule Name>
CVD-0011054

> <SMILES>
CCC(C(=O)Nc1c(cnn1-c1nc(C)cc(C)n1)C#N)c1ccccc1

$$$$

  CDD

  0  0  0  0  0  0            999 V2000
M  END
> <Molecule Name>
CVD-0011053

> <SMILES>
CCc1nn2c(ccnc2c1-c1ccc(Br)cc1)-c1ccccn1

$$$$

  CDD

  0  0  0  0  0  0            999 V2000
M  END
> <Molecule Name>
CVD-0011052

> <SMILES>
Cc1nn2c(ccnc2c1-c1ccc(F)cc1)-c1cccnc1

$$$$

  CDD

  0  0  0  0  0  0            999 V2000
M  END
> <Molecule Name>
CVD-0011051

> <SMILES>
Clc1ccc(cc1)-c1ccnc2ncnn12

$$$$

  CDD

  0  0  0  0  0  0            999 V2000
M  END
> <Molecule Name>
CVD-0011050

> <SMILES>
Cc1ccc(cc1)-c1nc2ncc(C#N)c(N)n2n1

$$$$

  CDD

  0  0  0  0  0  0            999 V2000
M  END
> <Molecule Name>
CVD-0011049

> <SMILES>
Nc1c(cnc2nc(nn12)-c1ccccc1)C#N

$$$$

  CDD

  0  0  0  0  0  0            999 V2000
M  END
> <Molecule Name>
CVD-0011048

> <SMILES>
CC(=O)c1c(C)nc2nc(SCc3ccc(Cl)cc3)nn2c1C

$$$$

  CDD

  0  0  0  0  0  0            999 V2000
M  END
> <Molecule Name>
CVD-0011047

> <SMILES>
CCc1ccc2oc(=O)cc(CN3CCN(CC3)C(c3ccccc3)c3ccccc3)c2c1

$$$$

  CDD

  0  0  0  0  0  0            999 V2000
M  END
> <Molecule Name>
CVD-0011046

> <SMILES>
Cc1cc2oc(=O)cc(CN3CCN(CC3)c3cccc(Cl)c3)c2cc1C

$$$$

  CDD

  0  0  0  0  0  0            999 V2000
M  END
> <Molecule Name>
CVD-0011045

> <SMILES>
CCOC(=O)CN1CCN(Cc2cc(=O)oc3ccc(CC)cc23)CC1

$$$$

  CDD

  0  0  0  0  0  0            999 V2000
M  END
> <Molecule Name>
CVD-0011044

> <SMILES>
Cc1ccc(c(C)c1)-n1cnc2cc(ccc12)C(=O)N1CCc2ccccc12

$$$$

  CDD

  0  0  0  0  0  0            999 V2000
M  END
> <Molecule Name>
CVD-0011043

> <SMILES>
Fc1ccc(cc1)C(=O)N1CCCc2cc(ccc12)C(=O)NCCc1ccccc1

$$$$

  CDD

  0  0  0  0  0  0            999 V2000
M  END
> <Molecule Name>
CVD-0011042

> <SMILES>
Cc1oc(nc1CS(=O)(=O)c1ccccc1)-c1ccc(cc1)C(=O)N1CCc2ccccc12

$$$$

  CDD

  0  0  0  0  0  0            999 V2000
M  END
> <Molecule Name>
CVD-0011041

> <SMILES>
CC(C)Cn1cc(NC(=O)N2CCN(Cc3ccccc3)CC2)c2ccccc2c1=O

$$$$

  CDD

  0  0  0  0  0  0            999 V2000
M  END
> <Molecule Name>
CVD-0011040

> <SMILES>
CC(C)Cn1cc(NC(=O)NCCN2CCOCC2)c2ccccc2c1=O

$$$$

  CDD

  0  0  0  0  0  0            999 V2000
M  END
> <Molecule Name>
CVD-0011039

> <SMILES>
CC(C)Cn1cc(NC(=O)NCC2CCN(Cc3ccc(C)cc3)C2)c2ccccc2c1=O

$$$$

  CDD

  0  0  0  0  0  0            999 V2000
M  END
> <Molecule Name>
CVD-0011038

> <SMILES>
CC(C)Cn1cc(NC(=O)N2CCC(Cc3ccccc3)CC2)c2ccccc2c1=O

$$$$

  CDD

  0  0  0  0  0  0            999 V2000
M  END
> <Molecule Name>
CVD-0011037

> <SMILES>
COCCCN(C(C)c1ccncc1)C(=O)Nc1cn(CC(C)C)c(=O)c2ccccc12

$$$$

  CDD

  0  0  0  0  0  0            999 V2000
M  END
> <Molecule Name>
CVD-0011036

> <SMILES>
CC(C)Cn1cc(NC(=O)NC2CCN(Cc3ccccc3)CC2)c2ccccc2c1=O

$$$$

  CDD

  0  0  0  0  0  0            999 V2000
M  END
> <Molecule Name>
CVD-0011035

> <SMILES>
CC(C)Cn1cc(NC(=O)N2CCC3(CC2)OCCO3)c2ccccc2c1=O

$$$$

  CDD

  0  0  0  0  0  0            999 V2000
M  END
> <Molecule Name>
CVD-0011034

> <SMILES>
CC(C)Cn1cc(NC(=O)N2CCN(CC2)c2ccccc2F)c2ccccc2c1=O

$$$$

  CDD

  0  0  0  0  0  0            999 V2000
M  END
> <Molecule Name>
CVD-0011033

> <SMILES>
CCCCN(CCCNC(=O)Nc1cn(CC(C)C)c(=O)c2ccccc12)c1ccccc1

$$$$

  CDD

  0  0  0  0  0  0            999 V2000
M  END
> <Molecule Name>
CVD-0011032

> <SMILES>
CC(C)Cn1cc(NC(=O)N2CCC(C2)c2ccccc2)c2ccccc2c1=O

$$$$

  CDD

  0  0  0  0  0  0            999 V2000
M  END
> <Molecule Name>
CVD-0011031

> <SMILES>
CC(C)Cn1cc(NC(=O)NCCCN2CCCC2=O)c2ccccc2c1=O

$$$$

  CDD

  0  0  0  0  0  0            999 V2000
M  END
> <Molecule Name>
CVD-0011030

> <SMILES>
CC(C)Cn1cc(NC(=O)N2CCN(CC2)c2ccccn2)c2ccccc2c1=O

$$$$

  CDD

  0  0  0  0  0  0            999 V2000
M  END
> <Molecule Name>
CVD-0011029

> <SMILES>
Cn1cc(NC(=O)NCCCN2CCc3ccccc3C2)c2ccccc2c1=O

$$$$

  CDD

  0  0  0  0  0  0            999 V2000
M  END
> <Molecule Name>
CVD-0011028

> <SMILES>
CCOC(=O)N1CCC(CC1)NC(=O)Nc1cn(C)c(=O)c2ccccc12

$$$$

  CDD

  0  0  0  0  0  0            999 V2000
M  END
> <Molecule Name>
CVD-0011027

> <SMILES>
COc1cc(cc(OC)c1OC)C1CC(=NN1C)c1c(O)[nH]c(=O)n(CC=C)c1=O

$$$$

  CDD

  0  0  0  0  0  0            999 V2000
M  END
> <Molecule Name>
CVD-0011026

> <SMILES>
CCCCn1c(=O)[nH]c(O)c(C2=NN(C(C2)c2ccc(C)s2)C(C)=O)c1=O

$$$$

  CDD

  0  0  0  0  0  0            999 V2000
M  END
> <Molecule Name>
CVD-0011025

> <SMILES>
Cn1c(O)c(C2=NNC(C2)c2cccs2)c(=O)n(C)c1=O

$$$$

  CDD

  0  0  0  0  0  0            999 V2000
M  END
> <Molecule Name>
CVD-0011024

> <SMILES>
CCCCn1c(=O)[nH]c(O)c(C2=NN(C(C2)c2ccccc2OC)C(C)=O)c1=O

$$$$

  CDD

  0  0  0  0  0  0            999 V2000
M  END
> <Molecule Name>
CVD-0011023

> <SMILES>
CCC(=O)N1N=C(CC1c1ccccc1)c1c(O)[nH]c(=O)n(-c2ccc(Cl)cc2)c1=O

$$$$

  CDD

  0  0  0  0  0  0            999 V2000
M  END
> <Molecule Name>
CVD-0011022

> <SMILES>
CCn1cc(C2CC(=NN2)c2c(O)[nH]c(=O)n(C)c2=O)c2ccccc12

$$$$

  CDD

  0  0  0  0  0  0            999 V2000
M  END
> <Molecule Name>
CVD-0011021

> <SMILES>
CCCCn1c(=O)[nH]c(O)c(C2=NNC(C2)c2ccc3OCOc3c2)c1=O

$$$$

  CDD

  0  0  0  0  0  0            999 V2000
M  END
> <Molecule Name>
CVD-0011020

> <SMILES>
CC(=O)N1N=C(CC1c1cccs1)c1c(O)[nH]c(=O)n(-c2ccc(Cl)cc2)c1=O

$$$$

  CDD

  0  0  0  0  0  0            999 V2000
M  END
> <Molecule Name>
CVD-0011019

> <SMILES>
CC(=O)N1N=C(CC1c1ccc2OCOc2c1)c1c(O)[nH]c(=O)n(-c2ccc(Cl)cc2)c1=O

$$$$

  CDD

  0  0  0  0  0  0            999 V2000
M  END
> <Molecule Name>
CVD-0011018

> <SMILES>
CCOc1ccccc1C1CC(=NN1)c1c(O)[nH]c(=O)n(CC=C)c1=O

$$$$

  CDD

  0  0  0  0  0  0            999 V2000
M  END
> <Molecule Name>
CVD-0011017

> <SMILES>
O=C(N1CCOCC1)c1nc(no1)-c1csc(c1)S(=O)(=O)N1CCC(=CC1)c1ccccc1

$$$$

  CDD

  0  0  0  0  0  0            999 V2000
M  END
> <Molecule Name>
CVD-0011016

> <SMILES>
O=C(Cn1cnc(c1)S(=O)(=O)N1CCOCC1)NCCC1=CCCCC1

$$$$

  CDD

  0  0  0  0  0  0            999 V2000
M  END
> <Molecule Name>
CVD-0011015

> <SMILES>
CN(CC(=O)NCc1cccs1)S(=O)(=O)c1cccc2nsnc12

$$$$

  CDD

  0  0  0  0  0  0            999 V2000
M  END
> <Molecule Name>
CVD-0011014

> <SMILES>
COC(=O)C1=C2N(CCNC2=O)C2=C(C1c1ccc(SC)cc1)C(=O)CC(C)(C)C2

$$$$

  CDD

  0  0  0  0  0  0            999 V2000
M  END
> <Molecule Name>
CVD-0011013

> <SMILES>
COC(=O)C1=C2N(CCNC2=O)C2=C(C1c1cccc(Cl)c1)C(=O)CCC2

$$$$

  CDD

  0  0  0  0  0  0            999 V2000
M  END
> <Molecule Name>
CVD-0011012

> <SMILES>
COC(=O)C1=C2N(CCNC2=O)C2=C(C1c1cccc(O)c1)C(=O)CCC2

$$$$

  CDD

  0  0  0  0  0  0            999 V2000
M  END
> <Molecule Name>
CVD-0011011

> <SMILES>
COC(=O)C1=C2N(CCNC2=O)C2=C(C1c1ccc(F)cc1)C(=O)CC(C)(C)C2

$$$$

  CDD

  0  0  0  0  0  0            999 V2000
M  END
> <Molecule Name>
CVD-0011010

> <SMILES>
CCCOC(=O)C1=C(C)NC2=C(C1c1ccc(F)cc1)C(=O)CC(C2)c1ccc(OC)c(OC)c1

$$$$

  CDD

  0  0  0  0  0  0            999 V2000
M  END
> <Molecule Name>
CVD-0011009

> <SMILES>
COC(=O)c1c(NCCCc2ccccc2)c2cc(F)ccc2[nH]c1=O

$$$$

  CDD

  0  0  0  0  0  0            999 V2000
M  END
> <Molecule Name>
CVD-0011008

> <SMILES>
NS(=O)(=O)c1ccc(NC(=O)c2cc3ccccc3oc2=O)cc1

$$$$

  CDD

  0  0  0  0  0  0            999 V2000
M  END
> <Molecule Name>
CVD-0011007

> <SMILES>
CCc1nnc(NS(=O)(=O)c2ccc(NC(=O)c3cc4cc(OC)ccc4oc3=O)cc2)s1

$$$$

  CDD

  0  0  0  0  0  0            999 V2000
M  END
> <Molecule Name>
CVD-0011006

> <SMILES>
Cc1cccc(OCC(=O)Nc2ncc(Cc3ccccc3Cl)s2)c1

$$$$

  CDD

  0  0  0  0  0  0            999 V2000
M  END
> <Molecule Name>
CVD-0011005

> <SMILES>
Cc1ccc(Cc2cnc(NC(=O)COc3ccc(C)cc3)s2)cc1

$$$$

  CDD

  0  0  0  0  0  0            999 V2000
M  END
> <Molecule Name>
CVD-0011004

> <SMILES>
FC(F)(F)c1cccc(Cc2cnc(NC(=O)COc3ccccc3Cl)s2)c1

$$$$

  CDD

  0  0  0  0  0  0            999 V2000
M  END
> <Molecule Name>
CVD-0011003

> <SMILES>
Cc1ccc(OCC(=O)Nc2ncc(Cc3ccc(Br)cc3)s2)cc1

$$$$

  CDD

  0  0  0  0  0  0            999 V2000
M  END
> <Molecule Name>
CVD-0011002

> <SMILES>
Fc1ccc(Cc2cnc(NC(=O)COc3ccc(Cl)cc3)s2)cc1

$$$$

  CDD

  0  0  0  0  0  0            999 V2000
M  END
> <Molecule Name>
CVD-0011001

> <SMILES>
Cc1cccc(Cc2cnc(NC(=O)COc3cccc(C)c3)s2)c1

$$$$

  CDD

  0  0  0  0  0  0            999 V2000
M  END
> <Molecule Name>
CVD-0011000

> <SMILES>
CCCOc1ccc(cc1)C(=O)Nc1ncc(Cc2cccc(Cl)c2)s1

$$$$

  CDD

  0  0  0  0  0  0            999 V2000
M  END
> <Molecule Name>
CVD-0010999

> <SMILES>
Cc1cccc(c1)C(=O)Nc1c([nH]c2ccc(C)cc12)C(=O)NCc1ccccn1

$$$$

  CDD

  0  0  0  0  0  0            999 V2000
M  END
> <Molecule Name>
CVD-0010998

> <SMILES>
CCOC(=O)c1[nH]c2ccc(F)cc2c1NC(=O)CNc1nccs1

$$$$

  CDD

  0  0  0  0  0  0            999 V2000
M  END
> <Molecule Name>
CVD-0010997

> <SMILES>
CCOC(=O)c1[nH]c2ccc(OC)cc2c1NC(=O)CNc1nc(C)c(C)s1

$$$$

  CDD

  0  0  0  0  0  0            999 V2000
M  END
> <Molecule Name>
CVD-0010996

> <SMILES>
CCOC(=O)c1[nH]c2ccc(OC)cc2c1NC(C)=O

$$$$

  CDD

  0  0  0  0  0  0            999 V2000
M  END
> <Molecule Name>
CVD-0010995

> <SMILES>
CCOC(=O)c1[nH]c2ccc(OC)cc2c1NC(=O)CN1CCOCC1

$$$$

  CDD

  0  0  0  0  0  0            999 V2000
M  END
> <Molecule Name>
CVD-0010994

> <SMILES>
CCOC(=O)c1[nH]c(CN(Cc2ccc(OC)cc2)S(C)(=O)=O)c(C)c1C

$$$$

  CDD

  0  0  0  0  0  0            999 V2000
M  END
> <Molecule Name>
CVD-0010993

> <SMILES>
CCC(C)NC(=O)CN(Cc1ccccc1)S(=O)(=O)c1ccc(OC)cc1

$$$$

  CDD

  0  0  0  0  0  0            999 V2000
M  END
> <Molecule Name>
CVD-0010992

> <SMILES>
O=C(CN(Cc1ccccc1)S(=O)(=O)c1ccccc1)NCc1ccco1

$$$$

  CDD

  0  0  0  0  0  0            999 V2000
M  END
> <Molecule Name>
CVD-0010991

> <SMILES>
CCNC(=O)CN(Cc1ccccc1)S(=O)(=O)c1ccc(Br)cc1

$$$$

  CDD

  0  0  0  0  0  0            999 V2000
M  END
> <Molecule Name>
CVD-0010990

> <SMILES>
COCCNC(=O)CN(Cc1ccccc1)S(=O)(=O)c1ccc(C)cc1

$$$$

  CDD

  0  0  0  0  0  0            999 V2000
M  END
> <Molecule Name>
CVD-0010989

> <SMILES>
COc1ccc(CCNC(=O)CN(Cc2ccccc2)S(=O)(=O)c2ccccc2)cc1

$$$$

  CDD

  0  0  0  0  0  0            999 V2000
M  END
> <Molecule Name>
CVD-0010988

> <SMILES>
Cc1ccc(cc1)S(=O)(=O)N1CCN(CC1)S(=O)(=O)c1ccc(F)cc1

$$$$

  CDD

  0  0  0  0  0  0            999 V2000
M  END
> <Molecule Name>
CVD-0010987

> <SMILES>
COc1ccc(cc1)S(=O)(=O)N1CCN(CC1)S(=O)(=O)c1ccc(NC(C)=O)cc1

$$$$

  CDD

  0  0  0  0  0  0            999 V2000
M  END
> <Molecule Name>
CVD-0010986

> <SMILES>
CC(=O)Nc1ccc(cc1)S(=O)(=O)N1CCN(CC1)S(=O)(=O)c1ccc(C)cc1

$$$$

  CDD

  0  0  0  0  0  0            999 V2000
M  END
> <Molecule Name>
CVD-0010985

> <SMILES>
CC1Oc2cc(c(C)cc2NC1=O)S(=O)(=O)N1CCC(CC1)C(=O)NCCC1=CCCCC1

$$$$

  CDD

  0  0  0  0  0  0            999 V2000
M  END
> <Molecule Name>
CVD-0010984

> <SMILES>
CCN(Cc1ccccc1)C(=O)C1CCN(CC1)S(=O)(=O)c1ccc2SC(C)C(=O)Nc2c1

$$$$

  CDD

  0  0  0  0  0  0            999 V2000
M  END
> <Molecule Name>
CVD-0010983

> <SMILES>
O=C(CC1Oc2ccccc2NC1=O)N1CCN(Cc2ccc3OCOc3c2)CC1

$$$$

  CDD

  0  0  0  0  0  0            999 V2000
M  END
> <Molecule Name>
CVD-0010982

> <SMILES>
CC(=O)Nc1ccc(C)cc1S(=O)(=O)N1CCC(C)(CC1)C(=O)NCc1ccccc1

$$$$

  CDD

  0  0  0  0  0  0            999 V2000
M  END
> <Molecule Name>
CVD-0010981

> <SMILES>
Cc1ccc(Nc2nc(cs2)-c2ccccn2)c(C)c1

$$$$

  CDD

  0  0  0  0  0  0            999 V2000
M  END
> <Molecule Name>
CVD-0010980

> <SMILES>
Cc1ccccc1Nc1nc(cs1)-c1ccccn1

$$$$

  CDD

  0  0  0  0  0  0            999 V2000
M  END
> <Molecule Name>
CVD-0010979

> <SMILES>
Cc1ccc2[nH]c(Cc3ccc(N)cc3)nc2c1

$$$$

  CDD

  0  0  0  0  0  0            999 V2000
M  END
> <Molecule Name>
CVD-0010978

> <SMILES>
Cc1ccc2[nH]c3c(cnn(CC(=O)NCCN4CCc5ccccc5C4)c3=O)c2c1

$$$$

  CDD

  0  0  0  0  0  0            999 V2000
M  END
> <Molecule Name>
CVD-0010977

> <SMILES>
O=C1N(Cc2ccc(s2)S(=O)(=O)N2CCc3ccccc3C2)C(=O)c2ncccc12

$$$$

  CDD

  0  0  0  0  0  0            999 V2000
M  END
> <Molecule Name>
CVD-0010976

> <SMILES>
Cc1cc(C)cc(NC(=O)Cn2nc3c(nccn3c2=O)N2CCc3ccccc3C2)c1

$$$$

  CDD

  0  0  0  0  0  0            999 V2000
M  END
> <Molecule Name>
CVD-0010975

> <SMILES>
Cn1c2ccccc2c(=O)n2c1cc1ccccc1c2=O

$$$$

  CDD

  0  0  0  0  0  0            999 V2000
M  END
> <Molecule Name>
CVD-0010974

> <SMILES>
Fc1ccccc1-c1sc(=S)n2c1[nH]c(=O)c1ccccc21

$$$$

  CDD

  0  0  0  0  0  0            999 V2000
M  END
> <Molecule Name>
CVD-0010973

> <SMILES>
CCN(C(=O)Nc1cn(C)c(=O)c2ccccc12)c1ccccc1CC

$$$$

  CDD

  0  0  0  0  0  0            999 V2000
M  END
> <Molecule Name>
CVD-0010972

> <SMILES>
Cc1sc(cc1S(=O)(=O)Nc1ccc(Br)c(C)c1)-c1ccn[nH]1

$$$$

  CDD

  0  0  0  0  0  0            999 V2000
M  END
> <Molecule Name>
CVD-0010971

> <SMILES>
Cc1ccc2nsnc2c1S(=O)(=O)Nc1ccc(Br)cc1

$$$$

  CDD

  0  0  0  0  0  0            999 V2000
M  END
> <Molecule Name>
CVD-0010970

> <SMILES>
Cc1cc([nH]n1)-c1cc(c(C)o1)S(=O)(=O)Nc1ccc(F)c(F)c1

$$$$

  CDD

  0  0  0  0  0  0            999 V2000
M  END
> <Molecule Name>
CVD-0010969

> <SMILES>
CC(C)OCCCN(Cc1ccco1)C(=O)Nc1cn(C)c(=O)c2ccccc12

$$$$

  CDD

  0  0  0  0  0  0            999 V2000
M  END
> <Molecule Name>
CVD-0010968

> <SMILES>
Cn1cc(NC(=O)N(CC2CCCO2)Cc2ccco2)c2ccccc2c1=O

$$$$

  CDD

  0  0  0  0  0  0            999 V2000
M  END
> <Molecule Name>
CVD-0010967

> <SMILES>
Cn1cc(NC(=O)N2CCN(CC2)C(=O)c2ccco2)c2ccccc2c1=O

$$$$

  CDD

  0  0  0  0  0  0            999 V2000
M  END
> <Molecule Name>
CVD-0010966

> <SMILES>
Cn1cc(NC(=O)NCCN(Cc2ccco2)C2CCCC2)c2ccccc2c1=O

$$$$

  CDD

  0  0  0  0  0  0            999 V2000
M  END
> <Molecule Name>
CVD-0010965

> <SMILES>
CCCCN(CCNC(=O)Nc1cn(C)c(=O)c2ccccc12)Cc1ccco1

$$$$

  CDD

  0  0  0  0  0  0            999 V2000
M  END
> <Molecule Name>
CVD-0010964

> <SMILES>
COCCn1c(C)cnc1CCNS(=O)(=O)c1c(C)noc1C

$$$$

  CDD

  0  0  0  0  0  0            999 V2000
M  END
> <Molecule Name>
CVD-0010963

> <SMILES>
COCCn1c(C)cnc1CCNS(=O)(=O)c1c(C)nn(C)c1C

$$$$

  CDD

  0  0  0  0  0  0            999 V2000
M  END
> <Molecule Name>
CVD-0010962

> <SMILES>
COCCn1c(C)cnc1CCNS(=O)(=O)c1cccnc1

$$$$

  CDD

  0  0  0  0  0  0            999 V2000
M  END
> <Molecule Name>
CVD-0010961

> <SMILES>
COc1ccc(cc1)S(=O)(=O)N1CCc2nc(NC(=O)c3ccc4OCOc4c3)sc2C1

$$$$

  CDD

  0  0  0  0  0  0            999 V2000
M  END
> <Molecule Name>
CVD-0010960

> <SMILES>
COc1cc(OC)cc(c1)C(=O)Nc1nc2CCN(Cc2s1)S(=O)(=O)c1ccccc1

$$$$

  CDD

  0  0  0  0  0  0            999 V2000
M  END
> <Molecule Name>
CVD-0010959

> <SMILES>
CCCN1CCc2nc(NC(=O)c3ccc(cc3)C(=O)OC)sc2C1

$$$$

  CDD

  0  0  0  0  0  0            999 V2000
M  END
> <Molecule Name>
CVD-0010958

> <SMILES>
CN1CCc2nc(NC(=O)c3ccc(Cc4ccccc4)cc3)sc2C1

$$$$

  CDD

  0  0  0  0  0  0            999 V2000
M  END
> <Molecule Name>
CVD-0010957

> <SMILES>
COC(=O)c1ccc(cc1)C(=O)Nc1nc2CCN(C)Cc2s1

$$$$

  CDD

  0  0  0  0  0  0            999 V2000
M  END
> <Molecule Name>
CVD-0010956

> <SMILES>
CN1CCc2nc(NC(=O)c3ccc(cc3)C(C)=O)sc2C1

$$$$

  CDD

  0  0  0  0  0  0            999 V2000
M  END
> <Molecule Name>
CVD-0010955

> <SMILES>
CN1CCc2nc(NC(=O)c3ccc4OCCOc4c3)sc2C1

$$$$

  CDD

  0  0  0  0  0  0            999 V2000
M  END
> <Molecule Name>
CVD-0010954

> <SMILES>
CCCCCOc1cccc(c1)C(=O)Nc1nc2CCN(C)Cc2s1

$$$$

  CDD

  0  0  0  0  0  0            999 V2000
M  END
> <Molecule Name>
CVD-0010953

> <SMILES>
CCN1CCc2nc(NC(=O)c3cccc(c3)S(C)(=O)=O)sc2C1

$$$$

  CDD

  0  0  0  0  0  0            999 V2000
M  END
> <Molecule Name>
CVD-0010952

> <SMILES>
Cc1ccc(CC(=O)Nc2nc3CCN(Cc3s2)S(=O)(=O)c2ccc(C)cc2)cc1

$$$$

  CDD

  0  0  0  0  0  0            999 V2000
M  END
> <Molecule Name>
CVD-0010951

> <SMILES>
O=C(COc1cccc(c1)-n1cnnc1)NC1CCCc2c1[nH]c1ccccc21

$$$$

  CDD

  0  0  0  0  0  0            999 V2000
M  END
> <Molecule Name>
CVD-0010950

> <SMILES>
O=C(CNC(=O)c1cnccn1)NC1CCCc2c1[nH]c1ccccc21

$$$$

  CDD

  0  0  0  0  0  0            999 V2000
M  END
> <Molecule Name>
CVD-0010949

> <SMILES>
O=C(Cn1nc2CCCCCc2cc1=O)NC1CCCc2c1[nH]c1ccccc21

$$$$

  CDD

  0  0  0  0  0  0            999 V2000
M  END
> <Molecule Name>
CVD-0010948

> <SMILES>
O=C(NC1CCCc2c1[nH]c1ccccc21)c1n[nH]c2CCCc12

$$$$

  CDD

  0  0  0  0  0  0            999 V2000
M  END
> <Molecule Name>
CVD-0010947

> <SMILES>
O=C(C1CCN(CC1)c1ncnc2c3cccnc3sc12)N1CCC(Cc2ccccc2)CC1

$$$$

  CDD

  0  0  0  0  0  0            999 V2000
M  END
> <Molecule Name>
CVD-0010946

> <SMILES>
O=C(C1CCCN(C1)c1nnc(s1)-n1cccc1)N1CCN(CC1)c1ncccn1

$$$$

  CDD

  0  0  0  0  0  0            999 V2000
M  END
> <Molecule Name>
CVD-0010945

> <SMILES>
O=C(C1CCN(CC1)c1nc2cccnc2s1)N1CCN(CC1)C1CCCCC1

$$$$

  CDD

  0  0  0  0  0  0            999 V2000
M  END
> <Molecule Name>
CVD-0010944

> <SMILES>
CCC(C)(N(CC1CCCO1)C(=O)Cc1cccs1)C(=O)NC1CCCCC1

$$$$

  CDD

  0  0  0  0  0  0            999 V2000
M  END
> <Molecule Name>
CVD-0010943

> <SMILES>
Cc1ccsc1C1C(C(=O)OC2CCCCC2)=C(C)Nc2nnnn12

$$$$

  CDD

  0  0  0  0  0  0            999 V2000
M  END
> <Molecule Name>
CVD-0010942

> <SMILES>
Cc1noc(C)c1Cc1ccc(o1)C(=O)N1CCCCCCNC(=O)[C@@H]2CCCC[C@H]12

$$$$

  CDD

  0  0  0  0  0  0            999 V2000
M  END
> <Molecule Name>
CVD-0010941

> <SMILES>
CCCC1N(CCn2c(C)ccc12)C(=O)NCC1CCC(CC1)C(=O)OCC

$$$$

  CDD

  0  0  0  0  0  0            999 V2000
M  END
> <Molecule Name>
CVD-0010940

> <SMILES>
C(CNCc1cccn1-c1nnc(s1)N1CCOCC1)CN1CCCCCC1

$$$$

  CDD

  0  0  0  0  0  0            999 V2000
M  END
> <Molecule Name>
CVD-0010939

> <SMILES>
C(Cc1ccccc1)NCc1cccn1-c1nnc(s1)N1CCCCCC1

$$$$

  CDD

  0  0  0  0  0  0            999 V2000
M  END
> <Molecule Name>
CVD-0010938

> <SMILES>
CCCN1CCN(CC1)c1nnc(s1)-n1cccc1CN1CCN(CC1)c1cccc(OC)c1

$$$$

  CDD

  0  0  0  0  0  0            999 V2000
M  END
> <Molecule Name>
CVD-0010937

> <SMILES>
CCN1CCN(Cc2cccn2-c2nnc(s2)N2CCCCCC2)CC1

$$$$

  CDD

  0  0  0  0  0  0            999 V2000
M  END
> <Molecule Name>
CVD-0010936

> <SMILES>
CN(CCCNCc1cccn1-c1nnc(s1)N1CCCCC1)C1CCCCC1

$$$$

  CDD

  0  0  0  0  0  0            999 V2000
M  END
> <Molecule Name>
CVD-0010935

> <SMILES>
COc1ccc(CCNCc2cccn2-c2nnc(s2)N2CCC(C)CC2)cc1OC

$$$$

  CDD

  0  0  0  0  0  0            999 V2000
M  END
> <Molecule Name>
CVD-0010934

> <SMILES>
C(Cn1ccnc1-c1cnc(s1)N1CCCC1)c1ccco1

$$$$

  CDD

  0  0  0  0  0  0            999 V2000
M  END
> <Molecule Name>
CVD-0010933

> <SMILES>
CCN1C(=O)C2(CCN(CC2)C(=O)NCCC(C)C)c2ccccc12

$$$$

  CDD

  0  0  0  0  0  0            999 V2000
M  END
> <Molecule Name>
CVD-0010932

> <SMILES>
CCc1ccc(CN(Cc2cccnc2)C(=O)C2CC(=O)Nc3ccccc23)cc1

$$$$

  CDD

  0  0  0  0  0  0            999 V2000
M  END
> <Molecule Name>
CVD-0010931

> <SMILES>
CCNc1nc(C)c(s1)C(=O)N1CCC2(CC1)C(=O)N(C)c1ccccc21

$$$$

  CDD

  0  0  0  0  0  0            999 V2000
M  END
> <Molecule Name>
CVD-0010930

> <SMILES>
Cn1nc(c2C(CC(=O)Nc12)c1ccc(cc1)S(C)(=O)=O)C(C)(C)C

$$$$

  CDD

  0  0  0  0  0  0            999 V2000
M  END
> <Molecule Name>
CVD-0010929

> <SMILES>
Cn1nc(c2C(CC(=O)Nc12)c1ccc2cccc(O)c2n1)-c1cccnc1

$$$$

  CDD

  0  0  0  0  0  0            999 V2000
M  END
> <Molecule Name>
CVD-0010928

> <SMILES>
Cn1nc(c2C(CC(=O)Nc12)c1ccc2cccc(O)c2n1)C(C)(C)C

$$$$

  CDD

  0  0  0  0  0  0            999 V2000
M  END
> <Molecule Name>
CVD-0010927

> <SMILES>
Cc1nnc2n1c1ccccc1[nH]c2=S

$$$$

  CDD

  0  0  0  0  0  0            999 V2000
M  END
> <Molecule Name>
CVD-0010926

> <SMILES>
Cc1cc(ccc1N)N1CCn2c(C1)nc1ccccc21

$$$$

  CDD

  0  0  0  0  0  0            999 V2000
M  END
> <Molecule Name>
CVD-0010925

> <SMILES>
CCn1c(Cn2cccn2)nc2cc(NC(C)=O)ccc12

$$$$

  CDD

  0  0  0  0  0  0            999 V2000
M  END
> <Molecule Name>
CVD-0010924

> <SMILES>
CN(Cc1nc2ccccc2n1C)C(=O)c1cnc(nc1)-c1cccnc1

$$$$

  CDD

  0  0  0  0  0  0            999 V2000
M  END
> <Molecule Name>
CVD-0010923

> <SMILES>
CC(C)CN(C1CN(C1)C(=O)CCc1c(C)nn(C)c1C)C1CCN(C)CC1

$$$$

  CDD

  0  0  0  0  0  0            999 V2000
M  END
> <Molecule Name>
CVD-0010922

> <SMILES>
CN(Cc1ccccc1)C1CCCN(C1)C(=O)Cn1nc2ccccc2n1

$$$$

  CDD

  0  0  0  0  0  0            999 V2000
M  END
> <Molecule Name>
CVD-0010921

> <SMILES>
CN1[C@H]2CC[C@@H]1CN(Cc1c(nc3ccccn13)C(=O)N1CCCC1)CC2

$$$$

  CDD

  0  0  0  0  0  0            999 V2000
M  END
> <Molecule Name>
CVD-0010920

> <SMILES>
CC(C)C1CN(CCCN1CC1CC1)C(=O)c1onc2ccccc12

$$$$

  CDD

  0  0  0  0  0  0            999 V2000
M  END
> <Molecule Name>
CVD-0010919

> <SMILES>
Clc1cccc2n(CC(=O)N3CCc4[nH]c5ccccc5c4C3)ccc12

$$$$

  CDD

  0  0  0  0  0  0            999 V2000
M  END
> <Molecule Name>
CVD-0010918

> <SMILES>
Nc1nc2CCN(Cc2s1)C(=O)CCc1c[nH]c2ccccc12

$$$$

  CDD

  0  0  0  0  0  0            999 V2000
M  END
> <Molecule Name>
CVD-0010917

> <SMILES>
CN(CCCN1c2ccccc2CCc2ccccc12)C(=O)c1cnn[nH]1

$$$$

  CDD

  0  0  0  0  0  0            999 V2000
M  END
> <Molecule Name>
CVD-0010916

> <SMILES>
NC(=O)C1CCN(CC1)C(=O)CSc1nc(-c2ccccc2)n(n1)-c1nc2ccccc2s1

$$$$

  CDD

  0  0  0  0  0  0            999 V2000
M  END
> <Molecule Name>
CVD-0010915

> <SMILES>
Cc1nn2c(cc(C)nc2c1-c1ccc(Cl)cc1)N1CCC(CC1)C(=O)N1CCCC1

$$$$

  CDD

  0  0  0  0  0  0            999 V2000
M  END
> <Molecule Name>
CVD-0010914

> <SMILES>
O=C(NCCCN1CCCCC1)C1CCN(CC1)C(=O)c1cnn(c1-n1cccc1)-c1ccccc1

$$$$

  CDD

  0  0  0  0  0  0            999 V2000
M  END
> <Molecule Name>
CVD-0010913

> <SMILES>
CC(=O)N1CCC(Cn2ccnc2-c2cc3ccccc3s2)CC1

$$$$

  CDD

  0  0  0  0  0  0            999 V2000
M  END
> <Molecule Name>
CVD-0010912

> <SMILES>
CN(Cc1n[nH]c2CCCCCc12)C(=O)c1csc2nc(cn12)-c1ccccc1

$$$$

  CDD

  0  0  0  0  0  0            999 V2000
M  END
> <Molecule Name>
CVD-0010911

> <SMILES>
CCn1ccnc1-c1c(ncn1CCSc1nccn1C)-c1ccccc1

$$$$

  CDD

  0  0  0  0  0  0            999 V2000
M  END
> <Molecule Name>
CVD-0010910

> <SMILES>
Cc1nn(C)cc1-c1c(ncn1CCNC(=O)c1ccncc1)-c1ccccc1

$$$$

  CDD

  0  0  0  0  0  0            999 V2000
M  END
> <Molecule Name>
CVD-0010909

> <SMILES>
CC(=O)N1CCc2c(C1)nc(nc2NCCc1ccc(F)cc1)-c1ccccn1

$$$$

  CDD

  0  0  0  0  0  0            999 V2000
M  END
> <Molecule Name>
CVD-0010908

> <SMILES>
CC(=O)N1CCc2c(C1)nc(nc2NCCn1cccn1)-c1ccccn1

$$$$

  CDD

  0  0  0  0  0  0            999 V2000
M  END
> <Molecule Name>
CVD-0010907

> <SMILES>
CC(Nc1nc(nc2CN(CCc12)C(C)=O)-c1ccncc1)c1ncc[nH]1

$$$$

  CDD

  0  0  0  0  0  0            999 V2000
M  END
> <Molecule Name>
CVD-0010906

> <SMILES>
CC(C)n1cc(cn1)C1N(Cc2cnc(s2)N2CCCC2)CCc2c1[nH]c1ccccc21

$$$$

  CDD

  0  0  0  0  0  0            999 V2000
M  END
> <Molecule Name>
CVD-0010905

> <SMILES>
Fc1ccccc1C1N(Cc2cnc(s2)N2CCOCC2)CCc2c1[nH]c1ccccc21

$$$$

  CDD

  0  0  0  0  0  0            999 V2000
M  END
> <Molecule Name>
CVD-0010904

> <SMILES>
CCn1ccc(n1)C(=O)N1CCCn2nc(cc2C1)-c1ccc(OC)cc1

$$$$

  CDD

  0  0  0  0  0  0            999 V2000
M  END
> <Molecule Name>
CVD-0010903

> <SMILES>
CC(NC(=O)Cn1nnnc1CN1CCCCCC1)c1cnn(c1)-c1ccccc1

$$$$

  CDD

  0  0  0  0  0  0            999 V2000
M  END
> <Molecule Name>
CVD-0010902

> <SMILES>
CC(C)c1cc(C(=O)N2CCc3nc(N)sc3C2)n(C)n1

$$$$

  CDD

  0  0  0  0  0  0            999 V2000
M  END
> <Molecule Name>
CVD-0010901

> <SMILES>
CCn1nc(C(=O)N2CCN(CC2)c2ccccc2)c2CN(CCc12)C(=O)c1ccc2ccccc2c1

$$$$

  CDD

  0  0  0  0  0  0            999 V2000
M  END
> <Molecule Name>
CVD-0010900

> <SMILES>
CCCCc1nc(c[nH]1)-c1c(ncn1Cc1ccncc1)-c1ccccc1

$$$$

  CDD

  0  0  0  0  0  0            999 V2000
M  END
> <Molecule Name>
CVD-0010899

> <SMILES>
CCCCc1nc(c[nH]1)-c1nccn1C(C)c1ccc(C)nc1

$$$$

  CDD

  0  0  0  0  0  0            999 V2000
M  END
> <Molecule Name>
CVD-0010898

> <SMILES>
CCCCc1nc(CN(C)Cc2cccc3ncccc23)c[nH]1

$$$$

  CDD

  0  0  0  0  0  0            999 V2000
M  END
> <Molecule Name>
CVD-0010897

> <SMILES>
CCCCc1nc(c[nH]1)-c1nccn1Cc1ccncc1

$$$$

  CDD

  0  0  0  0  0  0            999 V2000
M  END
> <Molecule Name>
CVD-0010896

> <SMILES>
COc1cc(cc2OCOc12)-c1nccn1Cc1cccc2[nH]ccc12

$$$$

  CDD

  0  0  0  0  0  0            999 V2000
M  END
> <Molecule Name>
CVD-0010895

> <SMILES>
COc1cc2OCOc2cc1-c1nccn1CCc1cccc(F)c1

$$$$

  CDD

  0  0  0  0  0  0            999 V2000
M  END
> <Molecule Name>
CVD-0010894

> <SMILES>
COc1cc(-c2nccn2CCO)c(OC)cc1SC

$$$$

  CDD

  0  0  0  0  0  0            999 V2000
M  END
> <Molecule Name>
CVD-0010893

> <SMILES>
CSCc1noc(n1)-c1nc2c(CC(CNC2=O)c2ccc(F)cc2)[nH]1

$$$$

  CDD

  0  0  0  0  0  0            999 V2000
M  END
> <Molecule Name>
CVD-0010892

> <SMILES>
CC1(C)CNC(=O)c2nc(CCNc3cccnc3)[nH]c2C1

$$$$

  CDD

  0  0  0  0  0  0            999 V2000
M  END
> <Molecule Name>
CVD-0010891

> <SMILES>
CC(C)Cc1nc(no1)-c1nc2c(CC(C)(C)CNC2=O)[nH]1

$$$$

  CDD

  0  0  0  0  0  0            999 V2000
M  END
> <Molecule Name>
CVD-0010890

> <SMILES>
CC1(C)CNC(=O)c2nc(CC3=CCCCC3)[nH]c2C1

$$$$

  CDD

  0  0  0  0  0  0            999 V2000
M  END
> <Molecule Name>
CVD-0010889

> <SMILES>
CC(C)Cc1cc(on1)-c1nc2c(CC(C)(C)CNC2=O)[nH]1

$$$$

  CDD

  0  0  0  0  0  0            999 V2000
M  END
> <Molecule Name>
CVD-0010888

> <SMILES>
Cc1ccc(cn1)C(=O)N1C[C@H](C[C@H]1C(=O)N1CCCC1)Oc1cccnc1

$$$$

  CDD

  0  0  0  0  0  0            999 V2000
M  END
> <Molecule Name>
CVD-0010887

> <SMILES>
CC(C)CC(N1Cc2ccccc2C1=O)C(=O)NCc1ccc(CN2CCOCC2)o1

$$$$

  CDD

  0  0  0  0  0  0            999 V2000
M  END
> <Molecule Name>
CVD-0010886

> <SMILES>
O=C(CCC1CCCC1)N1C[C@H](C[C@H]1C(=O)N1CCCC1)Oc1ccccc1

$$$$

  CDD

  0  0  0  0  0  0            999 V2000
M  END
> <Molecule Name>
CVD-0010885

> <SMILES>
CCNC(=O)[C@@H]1C[C@H](N)CN1C(=O)c1ccnc(OC)c1

$$$$

  CDD

  0  0  0  0  0  0            999 V2000
M  END
> <Molecule Name>
CVD-0010884

> <SMILES>
COc1cccc(-c2nccn2-c2ccc(cc2)-c2nnc(C)[nH]2)c1OC

$$$$

  CDD

  0  0  0  0  0  0            999 V2000
M  END
> <Molecule Name>
CVD-0010883

> <SMILES>
COc1cccc(-c2nccn2-c2cccc(c2)-c2nnc(C)s2)c1OC

$$$$

  CDD

  0  0  0  0  0  0            999 V2000
M  END
> <Molecule Name>
CVD-0010882

> <SMILES>
COc1cc(Cl)c(C)cc1-n1ccnc1-c1cccnc1

$$$$

  CDD

  0  0  0  0  0  0            999 V2000
M  END
> <Molecule Name>
CVD-0010881

> <SMILES>
CN(C)Cc1csc(c1)-c1nccn1Cc1ccsc1

$$$$

  CDD

  0  0  0  0  0  0            999 V2000
M  END
> <Molecule Name>
CVD-0010880

> <SMILES>
CCCCc1nc(c[nH]1)-c1nccn1CCc1c(C)n[nH]c1C

$$$$

  CDD

  0  0  0  0  0  0            999 V2000
M  END
> <Molecule Name>
CVD-0010879

> <SMILES>
CCCCc1nc(c(Cl)[nH]1)-c1nccn1CCc1c[nH]cn1

$$$$

  CDD

  0  0  0  0  0  0            999 V2000
M  END
> <Molecule Name>
CVD-0010878

> <SMILES>
CCCCc1nc(c[nH]1)-c1nccn1Cc1ccoc1

$$$$

  CDD

  0  0  0  0  0  0            999 V2000
M  END
> <Molecule Name>
CVD-0010877

> <SMILES>
CCCCc1nc(c[nH]1)-c1nccn1CCc1ccccn1

$$$$

  CDD

  0  0  0  0  0  0            999 V2000
M  END
> <Molecule Name>
CVD-0010876

> <SMILES>
CCCCc1nc(c[nH]1)-c1nccn1CCN(C)C

$$$$

  CDD

  0  0  0  0  0  0            999 V2000
M  END
> <Molecule Name>
CVD-0010875

> <SMILES>
C(c1ccsc1)n1ccnc1-c1c[nH]cn1

$$$$

  CDD

  0  0  0  0  0  0            999 V2000
M  END
> <Molecule Name>
CVD-0010874

> <SMILES>
CCCCc1nc(c[nH]1)-c1nccn1CC(F)(F)F

$$$$

  CDD

  0  0  0  0  0  0            999 V2000
M  END
> <Molecule Name>
CVD-0010873

> <SMILES>
CCCNC(=O)N1CCCCC1c1nnc([nH]1)C1CC1

$$$$

  CDD

  0  0  0  0  0  0            999 V2000
M  END
> <Molecule Name>
CVD-0010872

> <SMILES>
O=C(NC1CCCCC1)N1CCCCC1c1nnc([nH]1)-c1cnccn1

$$$$

  CDD

  0  0  0  0  0  0            999 V2000
M  END
> <Molecule Name>
CVD-0010871

> <SMILES>
O=C(N1CCNC(=O)C1Cc1ccccc1)c1cnn[nH]1

$$$$

  CDD

  0  0  0  0  0  0            999 V2000
M  END
> <Molecule Name>
CVD-0010870

> <SMILES>
O=C(Cc1ccsc1)N1CCN(CC1)c1cc(n[nH]1)-c1cccs1

$$$$

  CDD

  0  0  0  0  0  0            999 V2000
M  END
> <Molecule Name>
CVD-0010869

> <SMILES>
CN1CCN(CC1)c1nc2CCN(Cc3ccc(Br)o3)CCc2c(=O)[nH]1

$$$$

  CDD

  0  0  0  0  0  0            999 V2000
M  END
> <Molecule Name>
CVD-0010868

> <SMILES>
CN(C)C(=O)c1nc(oc1C)C1CCN(CC1)C(=O)CC1CCCCC1

$$$$

  CDD

  0  0  0  0  0  0            999 V2000
M  END
> <Molecule Name>
CVD-0010867

> <SMILES>
O=C1CC2(CCCCC2)C(=O)N1Cc1nc(=O)c2ccsc2[nH]1

$$$$

  CDD

  0  0  0  0  0  0            999 V2000
M  END
> <Molecule Name>
CVD-0010866

> <SMILES>
CCc1cn[nH]c1C1CCN(CC1)C(=O)c1cc(C(C)=O)c(C)[nH]c1=O

$$$$

  CDD

  0  0  0  0  0  0            999 V2000
M  END
> <Molecule Name>
CVD-0010865

> <SMILES>
Cc1nn(C)c(Cl)c1CN1CCN(CC1)c1nnc(s1)C(F)(F)F

$$$$

  CDD

  0  0  0  0  0  0            999 V2000
M  END
> <Molecule Name>
CVD-0010864

> <SMILES>
CCn1c(CC2CCN(Cc3cc(no3)C(C)C)CC2)n[nH]c1=O

$$$$

  CDD

  0  0  0  0  0  0            999 V2000
M  END
> <Molecule Name>
CVD-0010863

> <SMILES>
CC(C)CN1CC(CC1=O)C(=O)N1CCc2nc(N)sc2C1

$$$$

  CDD

  0  0  0  0  0  0            999 V2000
M  END
> <Molecule Name>
CVD-0010862

> <SMILES>
Cc1noc(C)c1CC(=O)N1CCc2c(C1)cc(-c1cccc3nc(C)ccc13)c(=O)n2CC1CC1

$$$$

  CDD

  0  0  0  0  0  0            999 V2000
M  END
> <Molecule Name>
CVD-0010861

> <SMILES>
Cc1c(cnc2cc(=O)[nH]n12)C(=O)N1CCc2[nH]nc(c2C1)-c1ccccc1

$$$$

  CDD

  0  0  0  0  0  0            999 V2000
M  END
> <Molecule Name>
CVD-0010860

> <SMILES>
Cc1onc(c1C(=O)N(Cc1nccn1C)C1CC1)-c1ccccc1

$$$$

  CDD

  0  0  0  0  0  0            999 V2000
M  END
> <Molecule Name>
CVD-0010859

> <SMILES>
Cc1ccc(cc1)-c1cn[nH]c1C1CCCN(C1)C(=O)C1(Cn2ccnc2)CC1

$$$$

  CDD

  0  0  0  0  0  0            999 V2000
M  END
> <Molecule Name>
CVD-0010858

> <SMILES>
CCn1c(nn(C)c1=O)C1CCCN(Cc2cnn3c(C)cc(C)nc23)C1

$$$$

  CDD

  0  0  0  0  0  0            999 V2000
M  END
> <Molecule Name>
CVD-0010857

> <SMILES>
CCCCOC(=O)N1CCCC(C1)c1nn(C)c(=O)n1CC

$$$$

  CDD

  0  0  0  0  0  0            999 V2000
M  END
> <Molecule Name>
CVD-0010856

> <SMILES>
O=C(NC(Cn1ccnc1)c1ccccc1)c1cccc2ccnn12

$$$$

  CDD

  0  0  0  0  0  0            999 V2000
M  END
> <Molecule Name>
CVD-0010855

> <SMILES>
CC(C)CC(NC(=O)c1cnn2CCCCc12)c1ncnn1C

$$$$

  CDD

  0  0  0  0  0  0            999 V2000
M  END
> <Molecule Name>
CVD-0010854

> <SMILES>
CC(C)CC(NC(=O)c1cnn2ccccc12)c1ncnn1C

$$$$

  CDD

  0  0  0  0  0  0            999 V2000
M  END
> <Molecule Name>
CVD-0010853

> <SMILES>
CCn1ncnc1C(C)NC(=O)C(=O)c1cccn1C

$$$$

  CDD

  0  0  0  0  0  0            999 V2000
M  END
> <Molecule Name>
CVD-0010852

> <SMILES>
Cc1ccc(CNC(=O)N2CCCOCCNC(=O)[C@@H]3CCC[C@H]23)cc1

$$$$

  CDD

  0  0  0  0  0  0            999 V2000
M  END
> <Molecule Name>
CVD-0010851

> <SMILES>
CN1CCCCCCN(Cc2cccnc2)[C@H]2CCC[C@H]2C1=O

$$$$

  CDD

  0  0  0  0  0  0            999 V2000
M  END
> <Molecule Name>
CVD-0010850

> <SMILES>
Clc1ccc(nc1)C(=O)N1C[C@H]2C[C@H](C1)[C@@H]1CCCC(=O)N1C2

$$$$

  CDD

  0  0  0  0  0  0            999 V2000
M  END
> <Molecule Name>
CVD-0010849

> <SMILES>
CCc1cc(=O)oc2cc(OCC(=O)OC)c(Cl)cc12

$$$$

  CDD

  0  0  0  0  0  0            999 V2000
M  END
> <Molecule Name>
CVD-0010848

> <SMILES>
COC(=O)COc1ccc2c(c1)occ(-c1csc(C)n1)c2=O

$$$$

  CDD

  0  0  0  0  0  0            999 V2000
M  END
> <Molecule Name>
CVD-0010847

> <SMILES>
CCc1cc(=O)oc2c(C)c(OCC(=O)OC)ccc12

$$$$

  CDD

  0  0  0  0  0  0            999 V2000
M  END
> <Molecule Name>
CVD-0010846

> <SMILES>
Cc1cc(C)c(C)c(Oc2coc3cc(OC(=O)c4ccco4)ccc3c2=O)c1

$$$$

  CDD

  0  0  0  0  0  0            999 V2000
M  END
> <Molecule Name>
CVD-0010845

> <SMILES>
CC(=O)c1c(OC(=O)c2ccco2)ccc2c(C)cc(=O)oc12

$$$$

  CDD

  0  0  0  0  0  0            999 V2000
M  END
> <Molecule Name>
CVD-0010844

> <SMILES>
Cc1cc(C)cc(Oc2c(oc3cc(OC(=O)c4ccco4)ccc3c2=O)C(F)(F)F)c1

$$$$

  CDD

  0  0  0  0  0  0            999 V2000
M  END
> <Molecule Name>
CVD-0010843

> <SMILES>
FC(F)(F)c1oc2cc(OC(=O)c3ccco3)ccc2c(=O)c1-c1ccc(Cl)cc1

$$$$

  CDD

  0  0  0  0  0  0            999 V2000
M  END
> <Molecule Name>
CVD-0010842

> <SMILES>
O=C(Oc1ccc2c(cc(=O)oc2c1)-c1ccccc1)c1ccco1

$$$$

  CDD

  0  0  0  0  0  0            999 V2000
M  END
> <Molecule Name>
CVD-0010841

> <SMILES>
O=C(Oc1ccc2C(=O)COc2c1)c1cccs1

$$$$

  CDD

  0  0  0  0  0  0            999 V2000
M  END
> <Molecule Name>
CVD-0010840

> <SMILES>
O=c1[nH]c(Nc2ccccc2)nc2nccc(-c3ccncc3)c12

$$$$

  CDD

  0  0  0  0  0  0            999 V2000
M  END
> <Molecule Name>
CVD-0010839

> <SMILES>
CSc1ccccc1C(=O)Nc1nc(=O)c2ccccc2[nH]1

$$$$

  CDD

  0  0  0  0  0  0            999 V2000
M  END
> <Molecule Name>
CVD-0010838

> <SMILES>
O=c1oc(Nc2ccccc2)nc2ccccc12

$$$$

  CDD

  0  0  0  0  0  0            999 V2000
M  END
> <Molecule Name>
CVD-0010837

> <SMILES>
COc1ccc(cc1)C(=O)Nc1nc(CC(=O)Nc2ccc(Cl)c(Cl)c2)cs1

$$$$

  CDD

  0  0  0  0  0  0            999 V2000
M  END
> <Molecule Name>
CVD-0010836

> <SMILES>
COc1cc(C(=O)Nc2nc(cs2)-c2ccc(C)cc2)c(Br)c(OC)c1OC

$$$$

  CDD

  0  0  0  0  0  0            999 V2000
M  END
> <Molecule Name>
CVD-0010835

> <SMILES>
COc1cccc(c1)C(=O)Nc1n[nH]c(SCc2ccc(Cl)cc2)n1

$$$$

  CDD

  0  0  0  0  0  0            999 V2000
M  END
> <Molecule Name>
CVD-0010834

> <SMILES>
COc1cccc(c1)C1=N\C(=C\c2sccc2C)C(=O)O1

$$$$

  CDD

  0  0  0  0  0  0            999 V2000
M  END
> <Molecule Name>
CVD-0010833

> <SMILES>
CC1=N\C(=C/c2sccc2C)C(=O)O1

$$$$

  CDD

  0  0  0  0  0  0            999 V2000
M  END
> <Molecule Name>
CVD-0010832

> <SMILES>
COC(=O)\C=C1/SC(=NC1=O)c1ccccc1

$$$$

  CDD

  0  0  0  0  0  0            999 V2000
M  END
> <Molecule Name>
CVD-0010831

> <SMILES>
Cc1sc(NC(=O)c2cc3ccccc3o2)nc1-c1ccc(C)cc1

$$$$

  CDD

  0  0  0  0  0  0            999 V2000
M  END
> <Molecule Name>
CVD-0010830

> <SMILES>
C(Nc1ccc2nnnn2n1)c1ccc(o1)-c1nc2ccccc2s1

$$$$

  CDD

  0  0  0  0  0  0            999 V2000
M  END
> <Molecule Name>
CVD-0010829

> <SMILES>
O=C(CSc1nc2ccccc2o1)NCCSCc1ccco1

$$$$

  CDD

  0  0  0  0  0  0            999 V2000
M  END
> <Molecule Name>
CVD-0010828

> <SMILES>
Cc1ccccc1-c1nc2scc(CCNS(=O)(=O)CCc3ccccc3)n2n1

$$$$

  CDD

  0  0  0  0  0  0            999 V2000
M  END
> <Molecule Name>
CVD-0010827

> <SMILES>
S(c1nnc(o1)-c1ccncc1)c1cc(nc2ncnn12)-c1ccccc1

$$$$

  CDD

  0  0  0  0  0  0            999 V2000
M  END
> <Molecule Name>
CVD-0010826

> <SMILES>
S(c1nnc(-c2ccncc2)n1-c1ccccc1)c1cc(nc2ncnn12)-c1ccccc1

$$$$

  CDD

  0  0  0  0  0  0            999 V2000
M  END
> <Molecule Name>
CVD-0010825

> <SMILES>
Clc1oc2ccccc2c1CNC(=O)c1cncnc1

$$$$

  CDD

  0  0  0  0  0  0            999 V2000
M  END
> <Molecule Name>
CVD-0010824

> <SMILES>
CNS(=O)(=O)Cc1ccc(CNC(=O)c2cncnc2)cc1

$$$$

  CDD

  0  0  0  0  0  0            999 V2000
M  END
> <Molecule Name>
CVD-0010823

> <SMILES>
OC(=O)CSc1nc(NC(=O)c2cncnc2)c(cc1C#N)C(=O)Nc1ccccc1

$$$$

  CDD

  0  0  0  0  0  0            999 V2000
M  END
> <Molecule Name>
CVD-0010822

> <SMILES>
CN1C(=O)Cc2cc(ccc12)S(=O)(=O)NC(=O)c1cncnc1

$$$$

  CDD

  0  0  0  0  0  0            999 V2000
M  END
> <Molecule Name>
CVD-0010821

> <SMILES>
O=C(CNC(=O)c1cncnc1)c1c[nH]c2ccccc12

$$$$

  CDD

  0  0  0  0  0  0            999 V2000
M  END
> <Molecule Name>
CVD-0010820

> <SMILES>
Cc1cc(Br)cnc1S(=O)(=O)NC(=O)c1cncnc1

$$$$

  CDD

  0  0  0  0  0  0            999 V2000
M  END
> <Molecule Name>
CVD-0010819

> <SMILES>
OC(=O)C(Cc1c[nH]c2cccc(Br)c12)NC(=O)c1cncnc1

$$$$

  CDD

  0  0  0  0  0  0            999 V2000
M  END
> <Molecule Name>
CVD-0010818

> <SMILES>
OC(=O)C(Cc1cc2ccccc2o1)NC(=O)c1cncnc1

$$$$

  CDD

  0  0  0  0  0  0            999 V2000
M  END
> <Molecule Name>
CVD-0010817

> <SMILES>
O=C(NCc1ccc2NC(=O)Cc2c1)c1cncnc1

$$$$

  CDD

  0  0  0  0  0  0            999 V2000
M  END
> <Molecule Name>
CVD-0010816

> <SMILES>
OCCC(NC(=O)c1cncnc1)c1ccccc1Br

$$$$

  CDD

  0  0  0  0  0  0            999 V2000
M  END
> <Molecule Name>
CVD-0010815

> <SMILES>
O=C(NS(=O)(=O)c1cnn(c1)C1CCCC1)c1cncnc1

$$$$

  CDD

  0  0  0  0  0  0            999 V2000
M  END
> <Molecule Name>
CVD-0010814

> <SMILES>
Cn1cc(c(n1)C1CCCC1)S(=O)(=O)NC(=O)c1cncnc1

$$$$

  CDD

  0  0  0  0  0  0            999 V2000
M  END
> <Molecule Name>
CVD-0010813

> <SMILES>
O=C(NCc1ccc2CCOCc2c1)c1cncnc1

$$$$

  CDD

  0  0  0  0  0  0            999 V2000
M  END
> <Molecule Name>
CVD-0010812

> <SMILES>
OC(=O)c1cc(ccc1Br)S(=O)(=O)NC(=O)c1cncnc1

$$$$

  CDD

  0  0  0  0  0  0            999 V2000
M  END
> <Molecule Name>
CVD-0010811

> <SMILES>
COC(=O)C(NC(=O)c1cncnc1)c1ccccc1Br

$$$$

  CDD

  0  0  0  0  0  0            999 V2000
M  END
> <Molecule Name>
CVD-0010810

> <SMILES>
Fc1ccc(CC(=O)NCCNC(=O)c2cncnc2)cc1

$$$$

  CDD

  0  0  0  0  0  0            999 V2000
M  END
> <Molecule Name>
CVD-0010809

> <SMILES>
OC(CNC(=O)c1cncnc1)Cc1ccc(Cl)cc1

$$$$

  CDD

  0  0  0  0  0  0            999 V2000
M  END
> <Molecule Name>
CVD-0010808

> <SMILES>
COc1cc(CNC(=O)c2cncnc2)c2ccccc2n1

$$$$

  CDD

  0  0  0  0  0  0            999 V2000
M  END
> <Molecule Name>
CVD-0010807

> <SMILES>
Cc1cc2c(CCNC(=O)c3cncnc3)c[nH]c2cc1F

$$$$

  CDD

  0  0  0  0  0  0            999 V2000
M  END
> <Molecule Name>
CVD-0010806

> <SMILES>
Cc1cnc2[nH]cc(CCNC(=O)c3cncnc3)c2c1

$$$$

  CDD

  0  0  0  0  0  0            999 V2000
M  END
> <Molecule Name>
CVD-0010805

> <SMILES>
COCc1cccc(CS(=O)(=O)NC(=O)c2cncnc2)c1

$$$$

  CDD

  0  0  0  0  0  0            999 V2000
M  END
> <Molecule Name>
CVD-0010804

> <SMILES>
CC(C)(C)OC(=O)C1CC(NC(=O)c2cncnc2)c2ccccc12

$$$$

  CDD

  0  0  0  0  0  0            999 V2000
M  END
> <Molecule Name>
CVD-0010803

> <SMILES>
CC(NC(=O)c1cncnc1)(C(O)=O)c1ccc(Br)cc1

$$$$

  CDD

  0  0  0  0  0  0            999 V2000
M  END
> <Molecule Name>
CVD-0010802

> <SMILES>
CN(C)S(=O)(=O)NC(CNC(=O)c1cncnc1)C1CCCC1

$$$$

  CDD

  0  0  0  0  0  0            999 V2000
M  END
> <Molecule Name>
CVD-0010801

> <SMILES>
O=C(NCC1CCCC11NC(=O)NC1=O)c1cncnc1

$$$$

  CDD

  0  0  0  0  0  0            999 V2000
M  END
> <Molecule Name>
CVD-0010800

> <SMILES>
Brc1cc2CCOc2c(CNC(=O)c2cncnc2)c1

$$$$

  CDD

  0  0  0  0  0  0            999 V2000
M  END
> <Molecule Name>
CVD-0010799

> <SMILES>
CC(NC(=O)c1cncnc1)(C(O)=O)c1cccc(Br)c1

$$$$

  CDD

  0  0  0  0  0  0            999 V2000
M  END
> <Molecule Name>
CVD-0010798

> <SMILES>
OCCC(NC(=O)c1cncnc1)c1ccc(Br)cc1

$$$$

  CDD

  0  0  0  0  0  0            999 V2000
M  END
> <Molecule Name>
CVD-0010797

> <SMILES>
Cc1sc(cc1S(=O)(=O)NC(=O)c1cncnc1)C(O)=O

$$$$

  CDD

  0  0  0  0  0  0            999 V2000
M  END
> <Molecule Name>
CVD-0010796

> <SMILES>
COC(=O)CC(NC(=O)c1cncnc1)c1cccc(Br)c1

$$$$

  CDD

  0  0  0  0  0  0            999 V2000
M  END
> <Molecule Name>
CVD-0010795

> <SMILES>
Clc1ccc(cc1)C(NC(=O)c1cncnc1)C#N

$$$$

  CDD

  0  0  0  0  0  0            999 V2000
M  END
> <Molecule Name>
CVD-0010794

> <SMILES>
COC(=O)C(Cc1c[nH]c2ccccc12)NC(=O)c1cncnc1

$$$$

  CDD

  0  0  0  0  0  0            999 V2000
M  END
> <Molecule Name>
CVD-0010793

> <SMILES>
Fc1ccc(cc1F)C(NC(=O)c1cncnc1)c1cccnc1

$$$$

  CDD

  0  0  0  0  0  0            999 V2000
M  END
> <Molecule Name>
CVD-0010792

> <SMILES>
CCc1ccc(cc1NC(=O)c1cncnc1)S(=O)(=O)N1CCOCC1

$$$$

  CDD

  0  0  0  0  0  0            999 V2000
M  END
> <Molecule Name>
CVD-0010791

> <SMILES>
Brc1cc2CCNc2cc1S(=O)(=O)NC(=O)c1cncnc1

$$$$

  CDD

  0  0  0  0  0  0            999 V2000
M  END
> <Molecule Name>
CVD-0010790

> <SMILES>
O=C(NCc1nnc2CCCCCn12)c1cncnc1

$$$$

  CDD

  0  0  0  0  0  0            999 V2000
M  END
> <Molecule Name>
CVD-0010789

> <SMILES>
O=C(NS(=O)(=O)CC1CCCNC1)c1cncnc1

$$$$

  CDD

  0  0  0  0  0  0            999 V2000
M  END
> <Molecule Name>
CVD-0010788

> <SMILES>
O=C(NS(=O)(=O)c1cccc2CNCCc12)c1cncnc1

$$$$

  CDD

  0  0  0  0  0  0            999 V2000
M  END
> <Molecule Name>
CVD-0010787

> <SMILES>
OCc1ccc(cc1Br)S(=O)(=O)NC(=O)c1cncnc1

$$$$

  CDD

  0  0  0  0  0  0            999 V2000
M  END
> <Molecule Name>
CVD-0010786

> <SMILES>
Fc1ccc(c2cccnc12)S(=O)(=O)NC(=O)c1cncnc1

$$$$

  CDD

  0  0  0  0  0  0            999 V2000
M  END
> <Molecule Name>
CVD-0010785

> <SMILES>
COc1ccc(Cc2nnc(NC(=O)c3cncnc3)s2)cc1

$$$$

  CDD

  0  0  0  0  0  0            999 V2000
M  END
> <Molecule Name>
CVD-0010784

> <SMILES>
CC(NC(=O)c1cncnc1)c1ccc2NC(=O)Cc2c1

$$$$

  CDD

  0  0  0  0  0  0            999 V2000
M  END
> <Molecule Name>
CVD-0010783

> <SMILES>
COc1cc(CCCCNC(=O)c2cncnc2)cc(OC)c1O

$$$$

  CDD

  0  0  0  0  0  0            999 V2000
M  END
> <Molecule Name>
CVD-0010782

> <SMILES>
ClCC(=O)Nc1ccccc1SCC(=O)NC(=O)c1cncnc1

$$$$

  CDD

  0  0  0  0  0  0            999 V2000
M  END
> <Molecule Name>
CVD-0010781

> <SMILES>
COc1cccc(CC(NC(=O)c2cncnc2)C(O)=O)c1

$$$$

  CDD

  0  0  0  0  0  0            999 V2000
M  END
> <Molecule Name>
CVD-0010780

> <SMILES>
CNCc1cccc(CS(=O)(=O)NC(=O)c2cncnc2)c1

$$$$

  CDD

  0  0  0  0  0  0            999 V2000
M  END
> <Molecule Name>
CVD-0010779

> <SMILES>
O=C(NS(=O)(=O)c1coc2ccccc12)c1cncnc1

$$$$

  CDD

  0  0  0  0  0  0            999 V2000
M  END
> <Molecule Name>
CVD-0010778

> <SMILES>
O=C(NCC1(CCOCC1)c1ccc2OCOc2c1)c1cncnc1

$$$$

  CDD

  0  0  0  0  0  0            999 V2000
M  END
> <Molecule Name>
CVD-0010777

> <SMILES>
O=C(NS(=O)(=O)c1ccc2CCNC(=O)c2c1)c1cncnc1

$$$$

  CDD

  0  0  0  0  0  0            999 V2000
M  END
> <Molecule Name>
CVD-0010776

> <SMILES>
Cc1nc(no1)C(NC(=O)c1cncnc1)c1ccccc1

$$$$

  CDD

  0  0  0  0  0  0            999 V2000
M  END
> <Molecule Name>
CVD-0010775

> <SMILES>
Cc1cc(sc1C(O)=O)S(=O)(=O)NC(=O)c1cncnc1

$$$$

  CDD

  0  0  0  0  0  0            999 V2000
M  END
> <Molecule Name>
CVD-0010774

> <SMILES>
O=C(CNC(=O)c1cncnc1)Nc1ccccc1

$$$$

  CDD

  0  0  0  0  0  0            999 V2000
M  END
> <Molecule Name>
CVD-0010773

> <SMILES>
O=C(NCc1ccnn1CCc1ccccc1)c1cncnc1

$$$$

  CDD

  0  0  0  0  0  0            999 V2000
M  END
> <Molecule Name>
CVD-0010772

> <SMILES>
COCC[S+]([O-])Cc1cccc(NC(=O)c2cncnc2)c1

$$$$

  CDD

  0  0  0  0  0  0            999 V2000
M  END
> <Molecule Name>
CVD-0010771

> <SMILES>
OC(=O)c1cc(Br)cc(c1)S(=O)(=O)NC(=O)c1cncnc1

$$$$

  CDD

  0  0  0  0  0  0            999 V2000
M  END
> <Molecule Name>
CVD-0010770

> <SMILES>
COC(=O)C(NC(=O)c1cncnc1)c1cccc(Br)c1

$$$$

  CDD

  0  0  0  0  0  0            999 V2000
M  END
> <Molecule Name>
CVD-0010769

> <SMILES>
O=C(NC(Cc1ccccn1)c1ccccn1)c1cncnc1

$$$$

  CDD

  0  0  0  0  0  0            999 V2000
M  END
> <Molecule Name>
CVD-0010768

> <SMILES>
Brc1cccc(NC(=O)CNC(=O)c2cncnc2)c1

$$$$

  CDD

  0  0  0  0  0  0            999 V2000
M  END
> <Molecule Name>
CVD-0010767

> <SMILES>
OC(=O)Cc1ccc(s1)S(=O)(=O)NC(=O)c1cncnc1

$$$$

  CDD

  0  0  0  0  0  0            999 V2000
M  END
> <Molecule Name>
CVD-0010766

> <SMILES>
O=C(NS(=O)(=O)CC1CCNCC1)c1cncnc1

$$$$

  CDD

  0  0  0  0  0  0            999 V2000
M  END
> <Molecule Name>
CVD-0010765

> <SMILES>
COC(=O)C(NC(=O)c1cncnc1)c1ccccc1I

$$$$

  CDD

  0  0  0  0  0  0            999 V2000
M  END
> <Molecule Name>
CVD-0010764

> <SMILES>
OC(=O)C(CCc1ccncc1)NC(=O)c1cncnc1

$$$$

  CDD

  0  0  0  0  0  0            999 V2000
M  END
> <Molecule Name>
CVD-0010763

> <SMILES>
CC(NC(=O)c1cncnc1)c1nnc2CCCCCn12

$$$$

  CDD

  0  0  0  0  0  0            999 V2000
M  END
> <Molecule Name>
CVD-0010762

> <SMILES>
COc1cccc(CS(=O)(=O)NC(=O)c2cncnc2)c1

$$$$

  CDD

  0  0  0  0  0  0            999 V2000
M  END
> <Molecule Name>
CVD-0010761

> <SMILES>
CN(C)c1ccc(CC(CNC(=O)c2cncnc2)C(O)=O)cc1

$$$$

  CDD

  0  0  0  0  0  0            999 V2000
M  END
> <Molecule Name>
CVD-0010760

> <SMILES>
COc1cccc(CC2(CC2)NC(=O)c2cncnc2)c1

$$$$

  CDD

  0  0  0  0  0  0            999 V2000
M  END
> <Molecule Name>
CVD-0010759

> <SMILES>
O=C(NCc1cccnc1)c1ccccc1NC(=O)c1cncnc1

$$$$

  CDD

  0  0  0  0  0  0            999 V2000
M  END
> <Molecule Name>
CVD-0010758

> <SMILES>
O=C(NC1(CCOC1)c1ccccc1)c1cncnc1

$$$$

  CDD

  0  0  0  0  0  0            999 V2000
M  END
> <Molecule Name>
CVD-0010757

> <SMILES>
CC(NC(=O)c1cncnc1)(C(O)=O)c1ccccc1Br

$$$$

  CDD

  0  0  0  0  0  0            999 V2000
M  END
> <Molecule Name>
CVD-0010756

> <SMILES>
O=C(Nc1ccc(CC2NC(=O)NC2=O)cc1)c1cncnc1

$$$$

  CDD

  0  0  0  0  0  0            999 V2000
M  END
> <Molecule Name>
CVD-0010755

> <SMILES>
Brc1cccc2c(c[nH]c12)S(=O)(=O)NC(=O)c1cncnc1

$$$$

  CDD

  0  0  0  0  0  0            999 V2000
M  END
> <Molecule Name>
CVD-0010754

> <SMILES>
CC(CCc1cccnc1)NC(=O)c1cncnc1

$$$$

  CDD

  0  0  0  0  0  0            999 V2000
M  END
> <Molecule Name>
CVD-0010753

> <SMILES>
O=C(NCc1ncc([nH]1)-c1ccccc1)c1cncnc1

$$$$

  CDD

  0  0  0  0  0  0            999 V2000
M  END
> <Molecule Name>
CVD-0010752

> <SMILES>
COC(=O)C(Cc1coc2ccccc12)NC(=O)c1cncnc1

$$$$

  CDD

  0  0  0  0  0  0            999 V2000
M  END
> <Molecule Name>
CVD-0010751

> <SMILES>
COC(=O)C(Cc1c[nH]c2ccc(Br)cc12)NC(=O)c1cncnc1

$$$$

  CDD

  0  0  0  0  0  0            999 V2000
M  END
> <Molecule Name>
CVD-0010750

> <SMILES>
CNC(=O)c1ccc(CS(=O)(=O)NC(=O)c2cncnc2)cc1

$$$$

  CDD

  0  0  0  0  0  0            999 V2000
M  END
> <Molecule Name>
CVD-0010749

> <SMILES>
OC(=O)C(Cc1cc(I)c(O)c(I)c1)NC(=O)c1cncnc1

$$$$

  CDD

  0  0  0  0  0  0            999 V2000
M  END
> <Molecule Name>
CVD-0010748

> <SMILES>
OC(=O)c1cccc2c(CCNC(=O)c3cncnc3)c[nH]c12

$$$$

  CDD

  0  0  0  0  0  0            999 V2000
M  END
> <Molecule Name>
CVD-0010747

> <SMILES>
COC(=O)C1CCC(F)(CNC(=O)c2cncnc2)C1

$$$$

  CDD

  0  0  0  0  0  0            999 V2000
M  END
> <Molecule Name>
CVD-0010746

> <SMILES>
O=C(NC1(CCNC1)c1ccccc1)c1cncnc1

$$$$

  CDD

  0  0  0  0  0  0            999 V2000
M  END
> <Molecule Name>
CVD-0010745

> <SMILES>
COc1cccc(c1)C(NC(=O)c1cncnc1)c1cccnc1

$$$$

  CDD

  0  0  0  0  0  0            999 V2000
M  END
> <Molecule Name>
CVD-0010744

> <SMILES>
Brc1ccccc1NC(=O)CNC(=O)c1cncnc1

$$$$

  CDD

  0  0  0  0  0  0            999 V2000
M  END
> <Molecule Name>
CVD-0010743

> <SMILES>
COc1cc2C(CCc2cc1F)NC(=O)c1cncnc1

$$$$

  CDD

  0  0  0  0  0  0            999 V2000
M  END
> <Molecule Name>
CVD-0010742

> <SMILES>
OC(=O)c1ccc(Br)c(c1)S(=O)(=O)NC(=O)c1cncnc1

$$$$

  CDD

  0  0  0  0  0  0            999 V2000
M  END
> <Molecule Name>
CVD-0010741

> <SMILES>
COc1cc(Br)cc(CCNC(=O)c2cncnc2)c1

$$$$

  CDD

  0  0  0  0  0  0            999 V2000
M  END
> <Molecule Name>
CVD-0010740

> <SMILES>
Cc1c(F)cc(cc1C(O)=O)S(=O)(=O)NC(=O)c1cncnc1

$$$$

  CDD

  0  0  0  0  0  0            999 V2000
M  END
> <Molecule Name>
CVD-0010739

> <SMILES>
COC(=O)C(NC(=O)c1cncnc1)c1cccc(I)c1

$$$$

  CDD

  0  0  0  0  0  0            999 V2000
M  END
> <Molecule Name>
CVD-0010738

> <SMILES>
OC(=O)C1CCc2nc(NC(=O)c3cncnc3)ncc2C1

$$$$

  CDD

  0  0  0  0  0  0            999 V2000
M  END
> <Molecule Name>
CVD-0010737

> <SMILES>
OCCNC(=O)Cc1ccc(NC(=O)c2cncnc2)cc1

$$$$

  CDD

  0  0  0  0  0  0            999 V2000
M  END
> <Molecule Name>
CVD-0010736

> <SMILES>
O=C(NCc1noc(CC2CCCCNC2=O)n1)c1cncnc1

$$$$

  CDD

  0  0  0  0  0  0            999 V2000
M  END
> <Molecule Name>
CVD-0010735

> <SMILES>
OC(=O)C1COc2ccc(cc2C1)S(=O)(=O)NC(=O)c1cncnc1

$$$$

  CDD

  0  0  0  0  0  0            999 V2000
M  END
> <Molecule Name>
CVD-0010734

> <SMILES>
COc1ccc(C(NC(=O)c2cncnc2)c2ccccc2Cl)c(OC)c1

$$$$

  CDD

  0  0  0  0  0  0            999 V2000
M  END
> <Molecule Name>
CVD-0010733

> <SMILES>
O=C(NCc1nnc(CC2CCCCNC2=O)[nH]1)c1cncnc1

$$$$

  CDD

  0  0  0  0  0  0            999 V2000
M  END
> <Molecule Name>
CVD-0010732

> <SMILES>
O=C(NCCCN1C(=O)NC2(CCCCC2)C1=O)c1cncnc1

$$$$

  CDD

  0  0  0  0  0  0            999 V2000
M  END
> <Molecule Name>
CVD-0010731

> <SMILES>
CNC(=O)C(Cc1c[nH]c2ccccc12)NC(=O)c1cncnc1

$$$$

  CDD

  0  0  0  0  0  0            999 V2000
M  END
> <Molecule Name>
CVD-0010730

> <SMILES>
COC(=O)C(Cc1c[nH]c2cccc(Br)c12)NC(=O)c1cncnc1

$$$$

  CDD

  0  0  0  0  0  0            999 V2000
M  END
> <Molecule Name>
CVD-0010729

> <SMILES>
O=C(NC(Cc1nnc[nH]1)c1ccccc1)c1cncnc1

$$$$

  CDD

  0  0  0  0  0  0            999 V2000
M  END
> <Molecule Name>
CVD-0010728

> <SMILES>
Brc1cc2CCOc2c(c1)S(=O)(=O)NC(=O)c1cncnc1

$$$$

  CDD

  0  0  0  0  0  0            999 V2000
M  END
> <Molecule Name>
CVD-0010727

> <SMILES>
O=C(NCc1cccc(NC(=O)c2cccnc2)c1)c1cncnc1

$$$$

  CDD

  0  0  0  0  0  0            999 V2000
M  END
> <Molecule Name>
CVD-0010726

> <SMILES>
O=C(Nc1ccc(Cc2nnc3ncccn23)cc1)c1cncnc1

$$$$

  CDD

  0  0  0  0  0  0            999 V2000
M  END
> <Molecule Name>
CVD-0010725

> <SMILES>
Cc1ccc(cc1NC(=O)c1cncnc1)S(=O)(=O)N1CCOCC1

$$$$

  CDD

  0  0  0  0  0  0            999 V2000
M  END
> <Molecule Name>
CVD-0010724

> <SMILES>
OCCC1CCCCN1c1ccc(CNC(=O)c2cncnc2)cn1

$$$$

  CDD

  0  0  0  0  0  0            999 V2000
M  END
> <Molecule Name>
CVD-0010723

> <SMILES>
CC(NC(=O)c1cncnc1)c1coc2ccccc12

$$$$

  CDD

  0  0  0  0  0  0            999 V2000
M  END
> <Molecule Name>
CVD-0010722

> <SMILES>
CC(Cc1ccc(O)c(O)c1)NC(=O)c1cncnc1

$$$$

  CDD

  0  0  0  0  0  0            999 V2000
M  END
> <Molecule Name>
CVD-0010721

> <SMILES>
O=C(NCCCN1C(=O)c2ccccc2C1=O)c1cncnc1

$$$$

  CDD

  0  0  0  0  0  0            999 V2000
M  END
> <Molecule Name>
CVD-0010720

> <SMILES>
COc1cc(CCNC(=O)c2cncnc2)ccc1F

$$$$

  CDD

  0  0  0  0  0  0            999 V2000
M  END
> <Molecule Name>
CVD-0010719

> <SMILES>
Cc1nc2ccc(cc2s1)S(=O)(=O)NC(=O)c1cncnc1

$$$$

  CDD

  0  0  0  0  0  0            999 V2000
M  END
> <Molecule Name>
CVD-0010718

> <SMILES>
Cn1ccnc1CC(NC(=O)c1cncnc1)c1ccccc1

$$$$

  CDD

  0  0  0  0  0  0            999 V2000
M  END
> <Molecule Name>
CVD-0010717

> <SMILES>
CC(NC(=O)c1cncnc1)(C(O)=O)c1cc(Br)ccc1F

$$$$

  CDD

  0  0  0  0  0  0            999 V2000
M  END
> <Molecule Name>
CVD-0010716

> <SMILES>
OC(=O)C(NC(=O)c1cncnc1)c1ccccc1Cl

$$$$

  CDD

  0  0  0  0  0  0            999 V2000
M  END
> <Molecule Name>
CVD-0010715

> <SMILES>
O=C(NC(CN1CCCC1=O)c1ccccc1)c1cncnc1

$$$$

  CDD

  0  0  0  0  0  0            999 V2000
M  END
> <Molecule Name>
CVD-0010714

> <SMILES>
Cn1ccnc1C(NC(=O)c1cncnc1)c1ccc(Br)cc1

$$$$

  CDD

  0  0  0  0  0  0            999 V2000
M  END
> <Molecule Name>
CVD-0010713

> <SMILES>
Clc1ccc2snc(CNC(=O)c3cncnc3)c2c1

$$$$

  CDD

  0  0  0  0  0  0            999 V2000
M  END
> <Molecule Name>
CVD-0010712

> <SMILES>
CCOC(=O)c1cccc(c1)S(=O)(=O)NC(=O)c1cncnc1

$$$$

  CDD

  0  0  0  0  0  0            999 V2000
M  END
> <Molecule Name>
CVD-0010711

> <SMILES>
O=C(NCc1ccc2C(=O)NCc2c1)c1cncnc1

$$$$

  CDD

  0  0  0  0  0  0            999 V2000
M  END
> <Molecule Name>
CVD-0010710

> <SMILES>
CC(C)(O)c1ccc(CNC(=O)c2cncnc2)cc1

$$$$

  CDD

  0  0  0  0  0  0            999 V2000
M  END
> <Molecule Name>
CVD-0010709

> <SMILES>
Clc1ccc(cc1S(=O)(=O)NC(=O)c1cncnc1)C#N

$$$$

  CDD

  0  0  0  0  0  0            999 V2000
M  END
> <Molecule Name>
CVD-0010708

> <SMILES>
Oc1cccc(c1)-c1noc(CNC(=O)c2cncnc2)n1

$$$$

  CDD

  0  0  0  0  0  0            999 V2000
M  END
> <Molecule Name>
CVD-0010707

> <SMILES>
O=C(NCc1ccccc1Cn1cncn1)c1cncnc1

$$$$

  CDD

  0  0  0  0  0  0            999 V2000
M  END
> <Molecule Name>
CVD-0010706

> <SMILES>
O=C(NCc1ccccc1Cn1cccn1)c1cncnc1

$$$$

  CDD

  0  0  0  0  0  0            999 V2000
M  END
> <Molecule Name>
CVD-0010705

> <SMILES>
Cc1nc(n[nH]1)-c1cccc(CNC(=O)c2cncnc2)c1

$$$$

  CDD

  0  0  0  0  0  0            999 V2000
M  END
> <Molecule Name>
CVD-0010704

> <SMILES>
O=C(NC(=O)c1cncnc1)C1CNC(=O)C2(CCNCC2)C1

$$$$

  CDD

  0  0  0  0  0  0            999 V2000
M  END
> <Molecule Name>
CVD-0010703

> <SMILES>
COc1ccc(Br)cc1S(=O)(=O)NC(=O)c1cncnc1

$$$$

  CDD

  0  0  0  0  0  0            999 V2000
M  END
> <Molecule Name>
CVD-0010702

> <SMILES>
COc1ccc(Br)c(c1)S(=O)(=O)NC(=O)c1cncnc1

$$$$

  CDD

  0  0  0  0  0  0            999 V2000
M  END
> <Molecule Name>
CVD-0010701

> <SMILES>
COC(=O)C(CNC(=O)c1cncnc1)Cc1ccc(O)c(F)c1

$$$$

  CDD

  0  0  0  0  0  0            999 V2000
M  END
> <Molecule Name>
CVD-0010700

> <SMILES>
Clc1ccc2OC3(CCCC3)CC(NC(=O)c3cncnc3)c2c1

$$$$

  CDD

  0  0  0  0  0  0            999 V2000
M  END
> <Molecule Name>
CVD-0010699

> <SMILES>
COC(=O)CC(C)(NC(=O)c1cncnc1)c1ccc(Br)cc1

$$$$

  CDD

  0  0  0  0  0  0            999 V2000
M  END
> <Molecule Name>
CVD-0010698

> <SMILES>
Cc1ccc2nnc(CNC(=O)c3cncnc3)n2c1

$$$$

  CDD

  0  0  0  0  0  0            999 V2000
M  END
> <Molecule Name>
CVD-0010697

> <SMILES>
CC(CO)C(NC(=O)c1cncnc1)c1ccc(Br)cc1

$$$$

  CDD

  0  0  0  0  0  0            999 V2000
M  END
> <Molecule Name>
CVD-0010696

> <SMILES>
OC(=O)C(NC(=O)c1cncnc1)c1cccc(O)c1

$$$$

  CDD

  0  0  0  0  0  0            999 V2000
M  END
> <Molecule Name>
CVD-0010695

> <SMILES>
COC(=O)C(Cc1cccc(OC)c1)NC(=O)c1cncnc1

$$$$

  CDD

  0  0  0  0  0  0            999 V2000
M  END
> <Molecule Name>
CVD-0010694

> <SMILES>
CN(C)C(=O)NCCc1ccc(NC(=O)c2cncnc2)cc1

$$$$

  CDD

  0  0  0  0  0  0            999 V2000
M  END
> <Molecule Name>
CVD-0010693

> <SMILES>
COc1ccc(CC(CO)CNC(=O)c2cncnc2)cc1O

$$$$

  CDD

  0  0  0  0  0  0            999 V2000
M  END
> <Molecule Name>
CVD-0010692

> <SMILES>
COc1ccc(cc1)C(NC(=O)c1cncnc1)c1ccc(OC)cc1OC

$$$$

  CDD

  0  0  0  0  0  0            999 V2000
M  END
> <Molecule Name>
CVD-0010691

> <SMILES>
Fc1cc2NC(=O)CCc2cc1S(=O)(=O)NC(=O)c1cncnc1

$$$$

  CDD

  0  0  0  0  0  0            999 V2000
M  END
> <Molecule Name>
CVD-0010690

> <SMILES>
O=C(Nc1ccc(cc1)C1NC(=O)NC1=O)c1cncnc1

$$$$

  CDD

  0  0  0  0  0  0            999 V2000
M  END
> <Molecule Name>
CVD-0010689

> <SMILES>
Clc1cccc2C(=O)N(CCNC(=O)c3cncnc3)CCc12

$$$$

  CDD

  0  0  0  0  0  0            999 V2000
M  END
> <Molecule Name>
CVD-0010688

> <SMILES>
Cn1nc2ccccc2c1S(=O)(=O)NC(=O)c1cncnc1

$$$$

  CDD

  0  0  0  0  0  0            999 V2000
M  END
> <Molecule Name>
CVD-0010687

> <SMILES>
CC(NC(=O)c1cncnc1)(C(O)=O)c1ccccc1Cl

$$$$

  CDD

  0  0  0  0  0  0            999 V2000
M  END
> <Molecule Name>
CVD-0010686

> <SMILES>
CCC(NC(=O)c1cncnc1)c1nnc2CCCCCn12

$$$$

  CDD

  0  0  0  0  0  0            999 V2000
M  END
> <Molecule Name>
CVD-0010685

> <SMILES>
Clc1cc(ccc1C#N)S(=O)(=O)NC(=O)c1cncnc1

$$$$

  CDD

  0  0  0  0  0  0            999 V2000
M  END
> <Molecule Name>
CVD-0010684

> <SMILES>
OC(=O)C(NC(=O)c1cncnc1)c1cccc(Cl)c1

$$$$

  CDD

  0  0  0  0  0  0            999 V2000
M  END
> <Molecule Name>
CVD-0010683

> <SMILES>
COc1cccc(CC(C)(C)NC(=O)c2cncnc2)c1

$$$$

  CDD

  0  0  0  0  0  0            999 V2000
M  END
> <Molecule Name>
CVD-0010682

> <SMILES>
OC(=O)c1ccc(F)c(c1)S(=O)(=O)NC(=O)c1cncnc1

$$$$

  CDD

  0  0  0  0  0  0            999 V2000
M  END
> <Molecule Name>
CVD-0010681

> <SMILES>
O=C(NC(C1CCOCC1)c1ccccc1)c1cncnc1

$$$$

  CDD

  0  0  0  0  0  0            999 V2000
M  END
> <Molecule Name>
CVD-0010680

> <SMILES>
Cc1c(Cl)c(sc1S(=O)(=O)NC(=O)c1cncnc1)C(O)=O

$$$$

  CDD

  0  0  0  0  0  0            999 V2000
M  END
> <Molecule Name>
CVD-0010679

> <SMILES>
OC(=O)C(NC(=O)c1cncnc1)c1ccc(Cl)c(Br)c1

$$$$

  CDD

  0  0  0  0  0  0            999 V2000
M  END
> <Molecule Name>
CVD-0010678

> <SMILES>
OC(=O)c1ccc(Cl)c(c1)S(=O)(=O)NC(=O)c1cncnc1

$$$$

  CDD

  0  0  0  0  0  0            999 V2000
M  END
> <Molecule Name>
CVD-0010677

> <SMILES>
OC(=O)c1cc(ccc1Br)S(=O)(=O)NCC(=O)NC(=O)c1cncnc1

$$$$

  CDD

  0  0  0  0  0  0            999 V2000
M  END
> <Molecule Name>
CVD-0010676

> <SMILES>
O=C(NCC#C)c1ccccc1NC(=O)c1cncnc1

$$$$

  CDD

  0  0  0  0  0  0            999 V2000
M  END
> <Molecule Name>
CVD-0010675

> <SMILES>
OCCS(=O)(=O)c1ccc(CNC(=O)c2cncnc2)cc1

$$$$

  CDD

  0  0  0  0  0  0            999 V2000
M  END
> <Molecule Name>
CVD-0010674

> <SMILES>
COc1ccc(CC(=S)NC(=O)c2cncnc2)cc1OC

$$$$

  CDD

  0  0  0  0  0  0            999 V2000
M  END
> <Molecule Name>
CVD-0010673

> <SMILES>
OC(CC(NC(=O)c1cncnc1)C(O)=O)c1ccccc1

$$$$

  CDD

  0  0  0  0  0  0            999 V2000
M  END
> <Molecule Name>
CVD-0010672

> <SMILES>
CS(=O)(=O)c1ccc(cc1)C(CO)NC(=O)c1cncnc1

$$$$

  CDD

  0  0  0  0  0  0            999 V2000
M  END
> <Molecule Name>
CVD-0010671

> <SMILES>
CN1C(C(CNC(=O)c2cncnc2)CC1=O)c1ccccc1

$$$$

  CDD

  0  0  0  0  0  0            999 V2000
M  END
> <Molecule Name>
CVD-0010670

> <SMILES>
OC(=O)c1cc(Br)cc(c1F)S(=O)(=O)NC(=O)c1cncnc1

$$$$

  CDD

  0  0  0  0  0  0            999 V2000
M  END
> <Molecule Name>
CVD-0010669

> <SMILES>
O=C(NS(=O)(=O)c1sccc1C#N)c1cncnc1

$$$$

  CDD

  0  0  0  0  0  0            999 V2000
M  END
> <Molecule Name>
CVD-0010668

> <SMILES>
O\N=C1\N(CC(=O)NC(=O)c2cncnc2)C(=O)c2ccccc12

$$$$

  CDD

  0  0  0  0  0  0            999 V2000
M  END
> <Molecule Name>
CVD-0010667

> <SMILES>
OC(=O)c1ccc(F)c(CNC(=O)c2cncnc2)c1

$$$$

  CDD

  0  0  0  0  0  0            999 V2000
M  END
> <Molecule Name>
CVD-0010666

> <SMILES>
O=C(NC1COCC1C(=O)c1ccccc1)c1cncnc1

$$$$

  CDD

  0  0  0  0  0  0            999 V2000
M  END
> <Molecule Name>
CVD-0010665

> <SMILES>
O=C(NCc1nc(CNC(=O)c2cncnc2)cs1)c1ccccc1

$$$$

  CDD

  0  0  0  0  0  0            999 V2000
M  END
> <Molecule Name>
CVD-0010664

> <SMILES>
O=C(NCCC1CCC2(CCOCC2)CO1)c1cncnc1

$$$$

  CDD

  0  0  0  0  0  0            999 V2000
M  END
> <Molecule Name>
CVD-0010663

> <SMILES>
COC(=O)Cc1cc(OC)ccc1S(=O)(=O)NC(=O)c1cncnc1

$$$$

  CDD

  0  0  0  0  0  0            999 V2000
M  END
> <Molecule Name>
CVD-0010662

> <SMILES>
OC(=O)c1cc(ccc1F)S(=O)(=O)NC(=O)c1cncnc1

$$$$

  CDD

  0  0  0  0  0  0            999 V2000
M  END
> <Molecule Name>
CVD-0010661

> <SMILES>
CC(NC(=O)c1cncnc1)(C(O)=O)c1cccc(F)c1

$$$$

  CDD

  0  0  0  0  0  0            999 V2000
M  END
> <Molecule Name>
CVD-0010660

> <SMILES>
OC(=O)C(CSc1nc2ccccc2s1)NC(=O)c1cncnc1

$$$$

  CDD

  0  0  0  0  0  0            999 V2000
M  END
> <Molecule Name>
CVD-0010659

> <SMILES>
O=C(NCc1cccc(Cn2ccnc2)c1)c1cncnc1

$$$$

  CDD

  0  0  0  0  0  0            999 V2000
M  END
> <Molecule Name>
CVD-0010658

> <SMILES>
O=C(NCCCN1C(=O)NC2(CCCC2)C1=O)c1cncnc1

$$$$

  CDD

  0  0  0  0  0  0            999 V2000
M  END
> <Molecule Name>
CVD-0010657

> <SMILES>
OC(=O)c1cc(ccc1Cl)S(=O)(=O)NC(=O)c1cncnc1

$$$$

  CDD

  0  0  0  0  0  0            999 V2000
M  END
> <Molecule Name>
CVD-0010656

> <SMILES>
Cc1nc(cs1)-c1cccc(CNC(=O)c2cncnc2)c1

$$$$

  CDD

  0  0  0  0  0  0            999 V2000
M  END
> <Molecule Name>
CVD-0010655

> <SMILES>
O=C(NCCN1C(=O)c2ccccc2S1(=O)=O)c1cncnc1

$$$$

  CDD

  0  0  0  0  0  0            999 V2000
M  END
> <Molecule Name>
CVD-0010654

> <SMILES>
OC(=O)c1cc(F)cc(c1)S(=O)(=O)NC(=O)c1cncnc1

$$$$

  CDD

  0  0  0  0  0  0            999 V2000
M  END
> <Molecule Name>
CVD-0010653

> <SMILES>
OC(=O)C(NC(=O)c1cncnc1)c1cccc(c1)C(O)=O

$$$$

  CDD

  0  0  0  0  0  0            999 V2000
M  END
> <Molecule Name>
CVD-0010652

> <SMILES>
Cc1cc(ccc1CNC(=O)c1cncnc1)N1CCNC(=O)C1

$$$$

  CDD

  0  0  0  0  0  0            999 V2000
M  END
> <Molecule Name>
CVD-0010651

> <SMILES>
O=C(Nc1cc[nH]n1)C(NC(=O)c1cncnc1)c1ccccc1

$$$$

  CDD

  0  0  0  0  0  0            999 V2000
M  END
> <Molecule Name>
CVD-0010650

> <SMILES>
OC(=O)C(NC(=O)c1cncnc1)c1c[nH]c2ccccc12

$$$$

  CDD

  0  0  0  0  0  0            999 V2000
M  END
> <Molecule Name>
CVD-0010649

> <SMILES>
CS(=O)(=O)c1ccc(CNC(=O)c2cncnc2)cc1

$$$$

  CDD

  0  0  0  0  0  0            999 V2000
M  END
> <Molecule Name>
CVD-0010648

> <SMILES>
OC(=O)C(Cc1ccc2oc(=O)[nH]c2c1)NC(=O)c1cncnc1

$$$$

  CDD

  0  0  0  0  0  0            999 V2000
M  END
> <Molecule Name>
CVD-0010647

> <SMILES>
CC(NC(=O)c1cncnc1)(C(O)=O)c1ccc(F)cc1Br

$$$$

  CDD

  0  0  0  0  0  0            999 V2000
M  END
> <Molecule Name>
CVD-0010646

> <SMILES>
O=C(NS(=O)(=O)c1cnn(Cc2ccccc2)c1)c1cncnc1

$$$$

  CDD

  0  0  0  0  0  0            999 V2000
M  END
> <Molecule Name>
CVD-0010645

> <SMILES>
Brc1cccc(c1)C1(CCOCC1)NC(=O)c1cncnc1

$$$$

  CDD

  0  0  0  0  0  0            999 V2000
M  END
> <Molecule Name>
CVD-0010644

> <SMILES>
CC1(C)Cc2cccc(c2O1)S(=O)(=O)NC(=O)c1cncnc1

$$$$

  CDD

  0  0  0  0  0  0            999 V2000
M  END
> <Molecule Name>
CVD-0010643

> <SMILES>
COc1ccc(CC(CNC(=O)c2cncnc2)C(O)=O)cc1F

$$$$

  CDD

  0  0  0  0  0  0            999 V2000
M  END
> <Molecule Name>
CVD-0010642

> <SMILES>
OC(=O)C(Cc1ccc2OCOc2c1)NC(=O)c1cncnc1

$$$$

  CDD

  0  0  0  0  0  0            999 V2000
M  END
> <Molecule Name>
CVD-0010641

> <SMILES>
O=C(NCCC1CN(c2ccccc12)c1ncnc2[nH]ncc12)c1cncnc1

$$$$

  CDD

  0  0  0  0  0  0            999 V2000
M  END
> <Molecule Name>
CVD-0010640

> <SMILES>
Fc1cccc(c1C#N)S(=O)(=O)NC(=O)c1cncnc1

$$$$

  CDD

  0  0  0  0  0  0            999 V2000
M  END
> <Molecule Name>
CVD-0010639

> <SMILES>
O=C(Nc1cn[nH]c1)C(NC(=O)c1cncnc1)c1ccccc1

$$$$

  CDD

  0  0  0  0  0  0            999 V2000
M  END
> <Molecule Name>
CVD-0010638

> <SMILES>
CCS(=O)(=O)c1ccc(CNC(=O)c2cncnc2)cc1

$$$$

  CDD

  0  0  0  0  0  0            999 V2000
M  END
> <Molecule Name>
CVD-0010637

> <SMILES>
OC(=O)c1cc(F)cc(c1Br)S(=O)(=O)NC(=O)c1cncnc1

$$$$

  CDD

  0  0  0  0  0  0            999 V2000
M  END
> <Molecule Name>
CVD-0010636

> <SMILES>
CNC(=O)CC(NC(=O)c1cncnc1)c1ccccc1

$$$$

  CDD

  0  0  0  0  0  0            999 V2000
M  END
> <Molecule Name>
CVD-0010635

> <SMILES>
COC(=O)c1cccc(c1)C(NC(=O)c1cncnc1)C(O)=O

$$$$

  CDD

  0  0  0  0  0  0            999 V2000
M  END
> <Molecule Name>
CVD-0010634

> <SMILES>
O=C(NCc1nc(n[nH]1)C1CCCCC(=O)N1)c1cncnc1

$$$$

  CDD

  0  0  0  0  0  0            999 V2000
M  END
> <Molecule Name>
CVD-0010633

> <SMILES>
Cn1ccnc1-c1cccc(CNC(=O)c2cncnc2)c1

$$$$

  CDD

  0  0  0  0  0  0            999 V2000
M  END
> <Molecule Name>
CVD-0010632

> <SMILES>
O=C(Cc1ccc(NC(=O)c2cncnc2)cc1)N1CCOCC1

$$$$

  CDD

  0  0  0  0  0  0            999 V2000
M  END
> <Molecule Name>
CVD-0010631

> <SMILES>
O=C(NC(Cc1ncc[nH]1)c1ccccc1)c1cncnc1

$$$$

  CDD

  0  0  0  0  0  0            999 V2000
M  END
> <Molecule Name>
CVD-0010630

> <SMILES>
CC(NC(=O)c1cncnc1)c1ccc(cc1)S(C)(=O)=O

$$$$

  CDD

  0  0  0  0  0  0            999 V2000
M  END
> <Molecule Name>
CVD-0010629

> <SMILES>
COCCS(=O)(=O)Cc1cccc(NC(=O)c2cncnc2)c1

$$$$

  CDD

  0  0  0  0  0  0            999 V2000
M  END
> <Molecule Name>
CVD-0010628

> <SMILES>
OC(=O)c1cc(cc(Br)c1Cl)S(=O)(=O)NC(=O)c1cncnc1

$$$$

  CDD

  0  0  0  0  0  0            999 V2000
M  END
> <Molecule Name>
CVD-0010627

> <SMILES>
O=C(NCC1CCC(CN2C(=O)NC3(CCOC3)C2=O)CC1)c1cncnc1

$$$$

  CDD

  0  0  0  0  0  0            999 V2000
M  END
> <Molecule Name>
CVD-0010626

> <SMILES>
Fc1ccc(cc1C#N)S(=O)(=O)NC(=O)c1cncnc1

$$$$

  CDD

  0  0  0  0  0  0            999 V2000
M  END
> <Molecule Name>
CVD-0010625

> <SMILES>
O=C(Oc1nncn1C1CC1)c1cccc2[nH]ccc12

$$$$

  CDD

  0  0  0  0  0  0            999 V2000
M  END
> <Molecule Name>
CVD-0010624

> <SMILES>
COc1ccc(Cl)cc1CC(=O)Nc1cc(=O)[nH]c2ccccc12

$$$$

  CDD

  0  0  0  0  0  0            999 V2000
M  END
> <Molecule Name>
CVD-0010623

> <SMILES>
Clc1cccc(CC(=O)Nc2cc(=O)[nH]c3ccccc23)c1

$$$$

  CDD

  0  0  0  0  0  0            999 V2000
M  END
> <Molecule Name>
CVD-0010622

> <SMILES>
Clc1cccc(CC(=O)Nc2ncc3ccccn23)c1

$$$$

  CDD

  0  0  0  0  0  0            999 V2000
M  END
> <Molecule Name>
CVD-0010621

> <SMILES>
Clc1cccc(CC(=O)Nc2ncn3ccccc23)c1

$$$$

  CDD

  0  0  0  0  0  0            999 V2000
M  END
> <Molecule Name>
CVD-0010620

> <SMILES>
Clc1cccc(CC(=O)Nc2cnnc3ccccc23)c1

$$$$

  CDD

  0  0  0  0  0  0            999 V2000
M  END
> <Molecule Name>
CVD-0010619

> <SMILES>
Clc1cccc(CC(=O)Nc2nncc3ccccc23)c1

$$$$

  CDD

  0  0  0  0  0  0            999 V2000
M  END
> <Molecule Name>
CVD-0010618

> <SMILES>
COc1ccc2cncc(NC(=O)Cc3cccc(Cl)c3)c2c1

$$$$

  CDD

  0  0  0  0  0  0            999 V2000
M  END
> <Molecule Name>
CVD-0010617

> <SMILES>
Clc1cncc(OC(=O)c2cccc3NC(=O)C(=O)c23)c1

$$$$

  CDD

  0  0  0  0  0  0            999 V2000
M  END
> <Molecule Name>
CVD-0010616

> <SMILES>
Clc1cncc(OC(=O)c2cccc3NC(=O)Cc23)c1

$$$$

  CDD

  0  0  0  0  0  0            999 V2000
M  END
> <Molecule Name>
CVD-0010615

> <SMILES>
Clc1cncc(OC(=O)c2cccc3[nH]cnc23)c1

$$$$

  CDD

  0  0  0  0  0  0            999 V2000
M  END
> <Molecule Name>
CVD-0010614

> <SMILES>
Clc1cncc(OC(=O)c2cccc3[nH]ncc23)c1

$$$$

  CDD

  0  0  0  0  0  0            999 V2000
M  END
> <Molecule Name>
CVD-0010613

> <SMILES>
Clc1cc2c(cccc2[nH]1)C(=O)Oc1cncc(Cl)c1

$$$$

  CDD

  0  0  0  0  0  0            999 V2000
M  END
> <Molecule Name>
CVD-0010612

> <SMILES>
O=C(Nc1ncnn1C1CC1)c1cccc2[nH]ccc12

$$$$

  CDD

  0  0  0  0  0  0            999 V2000
M  END
> <Molecule Name>
CVD-0010611

> <SMILES>
O=C(Oc1cncc2ccccc12)c1cccc2[nH]ccc12

$$$$

  CDD

  0  0  0  0  0  0            999 V2000
M  END
> <Molecule Name>
CVD-0010610

> <SMILES>
Clc1cncc(OC(=O)c2cccc3NCCc23)c1

$$$$

  CDD

  0  0  0  0  0  0            999 V2000
M  END
> <Molecule Name>
CVD-0010609

> <SMILES>
Clc1cncc(OC(=O)c2cccc3occc23)c1

$$$$

  CDD

  0  0  0  0  0  0            999 V2000
M  END
> <Molecule Name>
CVD-0010608

> <SMILES>
Cn1ccc2c(cccc12)C(=O)Oc1cncc(Cl)c1

$$$$

  CDD

  0  0  0  0  0  0            999 V2000
M  END
> <Molecule Name>
CVD-0010607

> <SMILES>
CN(C(=O)c1cccc2[nH]ccc12)c1cncc(Cl)c1

$$$$

  CDD

  0  0  0  0  0  0            999 V2000
M  END
> <Molecule Name>
CVD-0010606

> <SMILES>
Clc1cncc(NC(=O)c2cccc3[nH]ccc23)c1

$$$$

  CDD

  0  0  0  0  0  0            999 V2000
M  END
> <Molecule Name>
CVD-0010605

> <SMILES>
C[C@H](NC(=O)C=N)c1cc(F)cc(c1)-c1ccc(C=N)cc1

$$$$

  CDD

  0  0  0  0  0  0            999 V2000
M  END
> <Molecule Name>
CVD-0010604

> <SMILES>
CC(=O)[C@H](NC(=O)CF)c1cc(F)cc(c1)-c1ccc(cc1)S(N)(=O)=O

$$$$

  CDD

  0  0  0  0  0  0            999 V2000
M  END
> <Molecule Name>
CVD-0010603

> <SMILES>
NC(=O)C(O)c1cc(F)cc(c1)-c1ccc(cc1)S(N)(=O)=O

$$$$

  CDD

  0  0  0  0  0  0            999 V2000
M  END
> <Molecule Name>
CVD-0010602

> <SMILES>
C[C@H](NC(=O)CF)c1cc(F)cc(c1)-c1ccc(cc1)S(N)(=O)=O

$$$$

  CDD

  0  0  0  0  0  0            999 V2000
M  END
> <Molecule Name>
CVD-0010601

> <SMILES>
NC(=O)Cc1cc(F)cc(c1)-c1ccc(cc1)S(N)(=O)=O

$$$$

  CDD

  0  0  0  0  0  0            999 V2000
M  END
> <Molecule Name>
CVD-0010600

> <SMILES>
CNC(=O)Cc1ccc(cc1P)-c1cccc(P)c1

$$$$

  CDD

  0  0  0  0  0  0            999 V2000
M  END
> <Molecule Name>
CVD-0010599

> <SMILES>
Cc1ccc(cc1)-c1cc(F)cc(c1)S(=O)(=O)NF

$$$$

  CDD

  0  0  0  0  0  0            999 V2000
M  END
> <Molecule Name>
CVD-0010598

> <SMILES>
NC(=O)C(=O)NN1C(=O)c2cc(ccc12)-c1cccc(F)c1

$$$$

  CDD

  0  0  0  0  0  0            999 V2000
M  END
> <Molecule Name>
CVD-0010597

> <SMILES>
C[C@H](NC(=O)CF)c1cc(F)cc(c1)-c1ccc(cc1)[PH](N)(=O)=O

$$$$

  CDD

  0  0  0  0  0  0            999 V2000
M  END
> <Molecule Name>
CVD-0010596

> <SMILES>
NS(=O)(=O)c1cc(F)cc(c1)-c1ccc(C=N)cc1

$$$$

  CDD

  0  0  0  0  0  0            999 V2000
M  END
> <Molecule Name>
CVD-0010595

> <SMILES>
NS(=O)(=O)c1ccc(cc1)-c1cc(F)cc(CNC(=O)CF)c1

$$$$

  CDD

  0  0  0  0  0  0            999 V2000
M  END
> <Molecule Name>
CVD-0010594

> <SMILES>
NCC(NC(=O)CF)c1cc(F)cc(c1)-c1ccc(cc1)S(N)(=O)=O

$$$$

  CDD

  0  0  0  0  0  0            999 V2000
M  END
> <Molecule Name>
CVD-0010593

> <SMILES>
Cc1cc(Cl)cc(c1)-c1ccc(cc1)S(O)(=O)=O

$$$$

  CDD

  0  0  0  0  0  0            999 V2000
M  END
> <Molecule Name>
CVD-0010592

> <SMILES>
C[C@H](NC(=O)CO)c1cc(Cl)cc(c1)S(N)(=O)=O

$$$$

  CDD

  0  0  0  0  0  0            999 V2000
M  END
> <Molecule Name>
CVD-0010591

> <SMILES>
C[C@H](NC(=O)COF)c1cc(Cl)cc(c1)S(N)(=O)=O

$$$$

  CDD

  0  0  0  0  0  0            999 V2000
M  END
> <Molecule Name>
CVD-0010590

> <SMILES>
NC(O)c1cc(Cl)cc(c1)-c1ccc(cc1)S(N)(=O)=O

$$$$

  CDD

  0  0  0  0  0  0            999 V2000
M  END
> <Molecule Name>
CVD-0010589

> <SMILES>
C[C@@H](NC(=O)CNI)c1cc(Cl)cc(c1)S(N)(=O)=O

$$$$

  CDD

  0  0  0  0  0  0            999 V2000
M  END
> <Molecule Name>
CVD-0010588

> <SMILES>
NNC(O)c1cc(Cl)cc(c1)-c1ccc(cc1)S(N)(=O)=O

$$$$

  CDD

  0  0  0  0  0  0            999 V2000
M  END
> <Molecule Name>
CVD-0010587

> <SMILES>
CNN[C@H](C)c1cc(N)cc(c1)-c1ccc(cc1)S(N)(=O)=O

$$$$

  CDD

  0  0  0  0  0  0            999 V2000
M  END
> <Molecule Name>
CVD-0010586

> <SMILES>
C[C@H](NC(=O)CS(N)(=O)=O)c1cc(P)cc(c1)-c1ccc(P)cc1

$$$$

  CDD

  0  0  0  0  0  0            999 V2000
M  END
> <Molecule Name>
CVD-0010585

> <SMILES>
Fc1cncc(OC(=O)c2cncc(P)c2)c1

$$$$

  CDD

  0  0  0  0  0  0            999 V2000
M  END
> <Molecule Name>
CVD-0010584

> <SMILES>
NC(=O)c1ccc2[nH]ccc2c1C(=O)Oc1cncc(F)c1

$$$$

  CDD

  0  0  0  0  0  0            999 V2000
M  END
> <Molecule Name>
CVD-0010583

> <SMILES>
NC(=N)c1cncc(OC(=O)c2cccc3[nH]ccc23)c1

$$$$

  CDD

  0  0  0  0  0  0            999 V2000
M  END
> <Molecule Name>
CVD-0010582

> <SMILES>
NC(N)c1cccc(c1)C(=O)Oc1cncc(F)c1

$$$$

  CDD

  0  0  0  0  0  0            999 V2000
M  END
> <Molecule Name>
CVD-0010581

> <SMILES>
Fc1cncc(OC(=O)c2cccc(OBr)c2)c1

$$$$

  CDD

  0  0  0  0  0  0            999 V2000
M  END
> <Molecule Name>
CVD-0010580

> <SMILES>
Fc1cncc(OC(=O)c2cccc3[nH]ccc23)c1

$$$$

  CDD

  0  0  0  0  0  0            999 V2000
M  END
> <Molecule Name>
CVD-0010579

> <SMILES>
Cc1cccc(c1)C(=O)Oc1cncc(F)c1

$$$$

  CDD

  0  0  0  0  0  0            999 V2000
M  END
> <Molecule Name>
CVD-0010578

> <SMILES>
Nc1cccc(c1)C(=O)Oc1cncc(N)c1

$$$$

  CDD

  0  0  0  0  0  0            999 V2000
M  END
> <Molecule Name>
CVD-0010577

> <SMILES>
OC1C=c2cccc(C(=O)Oc3cncc(Cl)c3)c2=C1

$$$$

  CDD

  0  0  0  0  0  0            999 V2000
M  END
> <Molecule Name>
CVD-0010576

> <SMILES>
Clc1cncc(OC(=O)c2cccc3=CONC=c23)c1

$$$$

  CDD

  0  0  0  0  0  0            999 V2000
M  END
> <Molecule Name>
CVD-0010575

> <SMILES>
NC1=c2cccc(C(=O)Oc3cncc(Cl)c3)c2=CCN1

$$$$

  CDD

  0  0  0  0  0  0            999 V2000
M  END
> <Molecule Name>
CVD-0010574

> <SMILES>
Clc1cncc(OC(=O)c2cccc3=CCC=c23)c1

$$$$

  CDD

  0  0  0  0  0  0            999 V2000
M  END
> <Molecule Name>
CVD-0010573

> <SMILES>
Clc1cncc(OC(=O)c2cccc3c(N=P)[nH]cc23)c1

$$$$

  CDD

  0  0  0  0  0  0            999 V2000
M  END
> <Molecule Name>
CVD-0010572

> <SMILES>
NC(O)(O)c1[nH]cc2c(cccc12)C(=O)Oc1cncc(Cl)c1

$$$$

  CDD

  0  0  0  0  0  0            999 V2000
M  END
> <Molecule Name>
CVD-0010571

> <SMILES>
OC(=O)c1[nH]cc2c(cccc12)C(=O)Oc1cncc(Cl)c1

$$$$

  CDD

  0  0  0  0  0  0            999 V2000
M  END
> <Molecule Name>
CVD-0010570

> <SMILES>
Clc1cncc(OC(=O)c2cccc3sccc23)c1

$$$$

  CDD

  0  0  0  0  0  0            999 V2000
M  END
> <Molecule Name>
CVD-0010569

> <SMILES>
NC(O)(O)c1ccccc1C(=O)Oc1cncc(Cl)c1

$$$$

  CDD

  0  0  0  0  0  0            999 V2000
M  END
> <Molecule Name>
CVD-0010568

> <SMILES>
Nc1[nH]cc2c(cccc12)C(=O)Oc1cncc(Cl)c1

$$$$

  CDD

  0  0  0  0  0  0            999 V2000
M  END
> <Molecule Name>
CVD-0010567

> <SMILES>
NC(=O)c1cccc(C(=O)Oc2cncc(Cl)c2)c1N

$$$$

  CDD

  0  0  0  0  0  0            999 V2000
M  END
> <Molecule Name>
CVD-0010566

> <SMILES>
Clc1cncc(OC(=O)c2cccc3c[nH]cc23)c1

$$$$

  CDD

  0  0  0  0  0  0            999 V2000
M  END
> <Molecule Name>
CVD-0010565

> <SMILES>
Nc1cccc(C(=O)Oc2cncc(Cl)c2)c1Cl

$$$$

  CDD

  0  0  0  0  0  0            999 V2000
M  END
> <Molecule Name>
CVD-0010564

> <SMILES>
Pc1c(Cl)cccc1C(=O)Oc1cncc(Cl)c1

$$$$

  CDD

  0  0  0  0  0  0            999 V2000
M  END
> <Molecule Name>
CVD-0010563

> <SMILES>
Nc1c(F)cccc1C(=O)Oc1cncc(Cl)c1

$$$$

  CDD

  0  0  0  0  0  0            999 V2000
M  END
> <Molecule Name>
CVD-0010562

> <SMILES>
Pc1c(Br)cccc1C(=O)Oc1cncc(Cl)c1

$$$$

  CDD

  0  0  0  0  0  0            999 V2000
M  END
> <Molecule Name>
CVD-0010561

> <SMILES>
Clc1cncc(OC(=O)c2cccc3[nH]nnc23)c1

$$$$

  CDD

  0  0  0  0  0  0            999 V2000
M  END
> <Molecule Name>
CVD-0010560

> <SMILES>
NNS(=O)(=O)c1c(P)cccc1C(=O)Oc1cncc(Cl)c1

$$$$

  CDD

  0  0  0  0  0  0            999 V2000
M  END
> <Molecule Name>
CVD-0010559

> <SMILES>
CPc1c(Cl)cccc1C(=O)Oc1cncc(Cl)c1

$$$$

  CDD

  0  0  0  0  0  0            999 V2000
M  END
> <Molecule Name>
CVD-0010558

> <SMILES>
NC(=O)N(Br)c1c(P)cccc1C(=O)Oc1cncc(Cl)c1

$$$$

  CDD

  0  0  0  0  0  0            999 V2000
M  END
> <Molecule Name>
CVD-0010557

> <SMILES>
CN(P)c1c(P)cccc1C(=O)Oc1cncc(Cl)c1

$$$$

  CDD

  0  0  0  0  0  0            999 V2000
M  END
> <Molecule Name>
CVD-0010556

> <SMILES>
Pc1cccc(C(=O)Oc2cncc(Cl)c2)c1P

$$$$

  CDD

  0  0  0  0  0  0            999 V2000
M  END
> <Molecule Name>
CVD-0010555

> <SMILES>
NCC(=N)c1c(Cl)cccc1C(=O)Oc1cncc(Cl)c1

$$$$

  CDD

  0  0  0  0  0  0            999 V2000
M  END
> <Molecule Name>
CVD-0010554

> <SMILES>
Cc1c(P)cccc1C(=O)Oc1cncc(Cl)c1

$$$$

  CDD

  0  0  0  0  0  0            999 V2000
M  END
> <Molecule Name>
CVD-0010553

> <SMILES>
Pc1cccc(C(=O)Oc2cncc(Cl)c2)c1Cl

$$$$

  CDD

  0  0  0  0  0  0            999 V2000
M  END
> <Molecule Name>
CVD-0010552

> <SMILES>
Nc1c(P)cccc1C(=O)Oc1cncc(Cl)c1

$$$$

  CDD

  0  0  0  0  0  0            999 V2000
M  END
> <Molecule Name>
CVD-0010551

> <SMILES>
Oc1cccc(C(=O)Oc2cncc(Cl)c2)c1F

$$$$

  CDD

  0  0  0  0  0  0            999 V2000
M  END
> <Molecule Name>
CVD-0010550

> <SMILES>
C[C@@H](O)[C@H](NC(C)=O)C(=O)CC[N+]([O-])=O

$$$$

  CDD

  0  0  0  0  0  0            999 V2000
M  END
> <Molecule Name>
CVD-0010549

> <SMILES>
Cc1ccncc1NC(=O)N(CCC1CCCCC1)c1cc(Cl)cc(OC2CC(=O)N2)c1

$$$$

  CDD

  0  0  0  0  0  0            999 V2000
M  END
> <Molecule Name>
CVD-0010548

> <SMILES>
Clc1cccc(CC(=O)Nc2cnccc2-c2ccccc2)c1

$$$$

  CDD

  0  0  0  0  0  0            999 V2000
M  END
> <Molecule Name>
CVD-0010547

> <SMILES>
Clc1cccc(c1)C(CCC1CCCCC1)C(=O)Nc1cncc2ccccc12

$$$$

  CDD

  0  0  0  0  0  0            999 V2000
M  END
> <Molecule Name>
CVD-0010546

> <SMILES>
Clc1cccc(CC(=O)Nc2cnc3ccccc3c2)c1

$$$$

  CDD

  0  0  0  0  0  0            999 V2000
M  END
> <Molecule Name>
CVD-0010545

> <SMILES>
Clc1cc(CC(=O)Nc2cncc3ccccc23)cc(OC2CC(=O)N2)c1

$$$$

  CDD

  0  0  0  0  0  0            999 V2000
M  END
> <Molecule Name>
CVD-0010544

> <SMILES>
COc1cc(Cl)cc(CC(=O)Nc2cncc3ccccc23)c1

$$$$

  CDD

  0  0  0  0  0  0            999 V2000
M  END
> <Molecule Name>
CVD-0010543

> <SMILES>
CC(C)(C)c1ccc(cc1)N(C(C(=O)NCCc1cccc(F)c1)c1cccnc1)C(=O)c1cccnc1

$$$$

  CDD

  0  0  0  0  0  0            999 V2000
M  END
> <Molecule Name>
CVD-0010542

> <SMILES>
CC(C)(C)c1ccc(cc1)N(C(C(=O)NCCc1cccc(F)c1)c1cccnc1)C(=O)c1ccco1

$$$$

  CDD

  0  0  0  0  0  0            999 V2000
M  END
> <Molecule Name>
CVD-0010541

> <SMILES>
Cn1ccc(n1)C(NC(=O)c1cncnc1)c1ccc(F)cc1

$$$$

  CDD

  0  0  0  0  0  0            999 V2000
M  END
> <Molecule Name>
CVD-0010540

> <SMILES>
COc1cc(CCc2cc(NC(=O)c3cncnc3)n[nH]2)cc(OC)c1

$$$$

  CDD

  0  0  0  0  0  0            999 V2000
M  END
> <Molecule Name>
CVD-0010539

> <SMILES>
COc1cccc(c1)C(O)CNC(=O)c1cncnc1

$$$$

  CDD

  0  0  0  0  0  0            999 V2000
M  END
> <Molecule Name>
CVD-0010538

> <SMILES>
COc1cccc(c1)C(CC(O)=O)NC(=O)c1cncnc1

$$$$

  CDD

  0  0  0  0  0  0            999 V2000
M  END
> <Molecule Name>
CVD-0010537

> <SMILES>
O=C(NC(=O)c1cncnc1)C1CNc2ccccc2O1

$$$$

  CDD

  0  0  0  0  0  0            999 V2000
M  END
> <Molecule Name>
CVD-0010536

> <SMILES>
COC(=O)CC(NC(=O)c1cncnc1)c1ccc(F)cc1

$$$$

  CDD

  0  0  0  0  0  0            999 V2000
M  END
> <Molecule Name>
CVD-0010535

> <SMILES>
Cc1nc(no1)C(NC(=O)c1cncnc1)c1ccc(F)cc1

$$$$

  CDD

  0  0  0  0  0  0            999 V2000
M  END
> <Molecule Name>
CVD-0010534

> <SMILES>
COc1cccc(c1)C(NC(=O)c1cncnc1)C(O)=O

$$$$

  CDD

  0  0  0  0  0  0            999 V2000
M  END
> <Molecule Name>
CVD-0010533

> <SMILES>
OC(=O)CCC(NC(=O)c1cncnc1)c1cccc(Cl)c1

$$$$

  CDD

  0  0  0  0  0  0            999 V2000
M  END
> <Molecule Name>
CVD-0010532

> <SMILES>
O=C(NCCn1c(=O)[nH]c2ccccc2c1=O)c1cncnc1

$$$$

  CDD

  0  0  0  0  0  0            999 V2000
M  END
> <Molecule Name>
CVD-0010531

> <SMILES>
OCC1(CCOc2ccccc12)NC(=O)c1cncnc1

$$$$

  CDD

  0  0  0  0  0  0            999 V2000
M  END
> <Molecule Name>
CVD-0010530

> <SMILES>
COc1ccc(Cn2cnc(NC(=O)c3cncnc3)n2)cc1

$$$$

  CDD

  0  0  0  0  0  0            999 V2000
M  END
> <Molecule Name>
CVD-0010529

> <SMILES>
COCCOCc1ccc(NC(=O)c2cncnc2)cc1

$$$$

  CDD

  0  0  0  0  0  0            999 V2000
M  END
> <Molecule Name>
CVD-0010528

> <SMILES>
COc1cc(CC(NC(=O)c2cncnc2)C(O)=O)ccc1O

$$$$

  CDD

  0  0  0  0  0  0            999 V2000
M  END
> <Molecule Name>
CVD-0010527

> <SMILES>
COC(=O)C(C)(NC(=O)c1cncnc1)c1ccc(F)cc1

$$$$

  CDD

  0  0  0  0  0  0            999 V2000
M  END
> <Molecule Name>
CVD-0010526

> <SMILES>
Cn1ccnc1C(NC(=O)c1cncnc1)c1ccc(F)cc1

$$$$

  CDD

  0  0  0  0  0  0            999 V2000
M  END
> <Molecule Name>
CVD-0010525

> <SMILES>
CCOC(=O)C(NC(=O)c1cncnc1)c1cccc(O)c1

$$$$

  CDD

  0  0  0  0  0  0            999 V2000
M  END
> <Molecule Name>
CVD-0010524

> <SMILES>
OC(=O)C1(CCN(Cc2ccccc2)CC1)NC(=O)c1cncnc1

$$$$

  CDD

  0  0  0  0  0  0            999 V2000
M  END
> <Molecule Name>
CVD-0010523

> <SMILES>
Cn1ccc(n1)C(NC(=O)c1cncnc1)c1ccc(Cl)cc1

$$$$

  CDD

  0  0  0  0  0  0            999 V2000
M  END
> <Molecule Name>
CVD-0010522

> <SMILES>
OC(=O)C(Cc1ccnc(Br)c1)NC(=O)c1cncnc1

$$$$

  CDD

  0  0  0  0  0  0            999 V2000
M  END
> <Molecule Name>
CVD-0010521

> <SMILES>
COC(=O)CC(NC(=O)c1cncnc1)c1ccc(Cl)cc1

$$$$

  CDD

  0  0  0  0  0  0            999 V2000
M  END
> <Molecule Name>
CVD-0010520

> <SMILES>
COCCC(NC(=O)c1cncnc1)c1ccc(Cl)cc1

$$$$

  CDD

  0  0  0  0  0  0            999 V2000
M  END
> <Molecule Name>
CVD-0010519

> <SMILES>
O=C(NS(=O)(=O)c1cnn2CCCCc12)c1cncnc1

$$$$

  CDD

  0  0  0  0  0  0            999 V2000
M  END
> <Molecule Name>
CVD-0010518

> <SMILES>
CC(NC(=O)c1cncnc1)c1coc2c(F)cccc12

$$$$

  CDD

  0  0  0  0  0  0            999 V2000
M  END
> <Molecule Name>
CVD-0010517

> <SMILES>
O=C(Nc1cccc(c1)S(=O)(=O)Nc1ncccn1)c1cncnc1

$$$$

  CDD

  0  0  0  0  0  0            999 V2000
M  END
> <Molecule Name>
CVD-0010516

> <SMILES>
CC(NC(=O)c1cncnc1)(C(O)=O)c1ccc(O)cc1

$$$$

  CDD

  0  0  0  0  0  0            999 V2000
M  END
> <Molecule Name>
CVD-0010515

> <SMILES>
Fc1ccc2cc(CNC(=O)c3cncnc3)c(=O)[nH]c2c1

$$$$

  CDD

  0  0  0  0  0  0            999 V2000
M  END
> <Molecule Name>
CVD-0010514

> <SMILES>
CS(=O)(=O)Nc1cccc(CNC(=O)c2cncnc2)c1

$$$$

  CDD

  0  0  0  0  0  0            999 V2000
M  END
> <Molecule Name>
CVD-0010513

> <SMILES>
CC(NC(=O)c1cncnc1)c1cccc(NC(C)=O)c1

$$$$

  CDD

  0  0  0  0  0  0            999 V2000
M  END
> <Molecule Name>
CVD-0010512

> <SMILES>
COC(=O)C(NC(=O)c1cncnc1)c1ccc(O)c(Br)c1

$$$$

  CDD

  0  0  0  0  0  0            999 V2000
M  END
> <Molecule Name>
CVD-0010511

> <SMILES>
CC(C)(C)OC(=O)C(C)(NC(=O)c1cncnc1)c1ccccc1

$$$$

  CDD

  0  0  0  0  0  0            999 V2000
M  END
> <Molecule Name>
CVD-0010510

> <SMILES>
COc1cccc(c1)-c1cc(CNC(=O)c2cncnc2)no1

$$$$

  CDD

  0  0  0  0  0  0            999 V2000
M  END
> <Molecule Name>
CVD-0010509

> <SMILES>
OCCC(NC(=O)c1cncnc1)c1cccc(F)c1

$$$$

  CDD

  0  0  0  0  0  0            999 V2000
M  END
> <Molecule Name>
CVD-0010508

> <SMILES>
O=C(NCC1CS(=O)(=O)c2ccccc2O1)c1cncnc1

$$$$

  CDD

  0  0  0  0  0  0            999 V2000
M  END
> <Molecule Name>
CVD-0010507

> <SMILES>
CC(NC(=O)c1cncnc1)c1cnc2CCCCn12

$$$$

  CDD

  0  0  0  0  0  0            999 V2000
M  END
> <Molecule Name>
CVD-0010506

> <SMILES>
ClCCC(=O)Nc1cccc(c1)S(=O)(=O)NC(=O)c1cncnc1

$$$$

  CDD

  0  0  0  0  0  0            999 V2000
M  END
> <Molecule Name>
CVD-0010505

> <SMILES>
Cc1nc(no1)C(NC(=O)c1cncnc1)c1ccc(Cl)cc1

$$$$

  CDD

  0  0  0  0  0  0            999 V2000
M  END
> <Molecule Name>
CVD-0010504

> <SMILES>
COC(=O)c1ccc(Cl)cc1S(=O)(=O)NC(=O)c1cncnc1

$$$$

  CDD

  0  0  0  0  0  0            999 V2000
M  END
> <Molecule Name>
CVD-0010503

> <SMILES>
OCCC(NC(=O)c1cncnc1)c1ccc(F)cc1

$$$$

  CDD

  0  0  0  0  0  0            999 V2000
M  END
> <Molecule Name>
CVD-0010502

> <SMILES>
O=C(NC(C(=O)N1CCOCC1)c1ccccc1)c1cncnc1

$$$$

  CDD

  0  0  0  0  0  0            999 V2000
M  END
> <Molecule Name>
CVD-0010501

> <SMILES>
CC1CCCN(C1)C(=O)C(NC(=O)c1cncnc1)c1cnn(C)c1

$$$$

  CDD

  0  0  0  0  0  0            999 V2000
M  END
> <Molecule Name>
CVD-0010500

> <SMILES>
Cc1ncsc1CCCNC(=O)c1cncnc1

$$$$

  CDD

  0  0  0  0  0  0            999 V2000
M  END
> <Molecule Name>
CVD-0010499

> <SMILES>
Fc1ccc(cc1)C(NC(=O)c1cncnc1)c1ccncc1

$$$$

  CDD

  0  0  0  0  0  0            999 V2000
M  END
> <Molecule Name>
CVD-0010498

> <SMILES>
COc1ccc(cc1)C(CO)NC(=O)c1cncnc1

$$$$

  CDD

  0  0  0  0  0  0            999 V2000
M  END
> <Molecule Name>
CVD-0010497

> <SMILES>
Cn1ccnc1C(NC(=O)c1cncnc1)c1ccc(Cl)cc1

$$$$

  CDD

  0  0  0  0  0  0            999 V2000
M  END
> <Molecule Name>
CVD-0010496

> <SMILES>
CC1(CCOc2ccccc12)NC(=O)c1cncnc1

$$$$

  CDD

  0  0  0  0  0  0            999 V2000
M  END
> <Molecule Name>
CVD-0010495

> <SMILES>
O=C(NCc1cccc(c1)N1CCOC1=O)c1cncnc1

$$$$

  CDD

  0  0  0  0  0  0            999 V2000
M  END
> <Molecule Name>
CVD-0010494

> <SMILES>
O=C(NCc1nc(CN2C(=O)c3ccccc3C2=O)cs1)c1cncnc1

$$$$

  CDD

  0  0  0  0  0  0            999 V2000
M  END
> <Molecule Name>
CVD-0010493

> <SMILES>
CCOC(=O)C(NC(=O)c1cncnc1)c1c[nH]c2ccccc12

$$$$

  CDD

  0  0  0  0  0  0            999 V2000
M  END
> <Molecule Name>
CVD-0010492

> <SMILES>
O=C(Nc1ccc(CN2C(=O)CNC2=O)cc1)c1cncnc1

$$$$

  CDD

  0  0  0  0  0  0            999 V2000
M  END
> <Molecule Name>
CVD-0010491

> <SMILES>
ClCC(=O)Nc1ccccc1S(=O)(=O)NC(=O)c1cncnc1

$$$$

  CDD

  0  0  0  0  0  0            999 V2000
M  END
> <Molecule Name>
CVD-0010490

> <SMILES>
OCCC(NC(=O)c1cncnc1)c1ccc(Cl)cc1

$$$$

  CDD

  0  0  0  0  0  0            999 V2000
M  END
> <Molecule Name>
CVD-0010489

> <SMILES>
OC(=O)C(Cc1ccnc(Br)c1Br)NC(=O)c1cncnc1

$$$$

  CDD

  0  0  0  0  0  0            999 V2000
M  END
> <Molecule Name>
CVD-0010488

> <SMILES>
O=C(NCc1ccccc1S(=O)(=O)N1CCCC1)c1cncnc1

$$$$

  CDD

  0  0  0  0  0  0            999 V2000
M  END
> <Molecule Name>
CVD-0010487

> <SMILES>
O=C(Nc1cncc(c1)-c1cnc2[nH]ccc2c1)c1cncnc1

$$$$

  CDD

  0  0  0  0  0  0            999 V2000
M  END
> <Molecule Name>
CVD-0010486

> <SMILES>
CC(NC(=O)c1cncnc1)c1cccc(c1)-n1cccn1

$$$$

  CDD

  0  0  0  0  0  0            999 V2000
M  END
> <Molecule Name>
CVD-0010485

> <SMILES>
O=C(NS(=O)(=O)c1cccc2nsnc12)c1cncnc1

$$$$

  CDD

  0  0  0  0  0  0            999 V2000
M  END
> <Molecule Name>
CVD-0010484

> <SMILES>
O=C(NS(=O)(=O)N1CCN(Cc2ccccc2)CC1)c1cncnc1

$$$$

  CDD

  0  0  0  0  0  0            999 V2000
M  END
> <Molecule Name>
CVD-0010483

> <SMILES>
Fc1ccc(cc1)C(NC(=O)c1cncnc1)c1ncc[nH]1

$$$$

  CDD

  0  0  0  0  0  0            999 V2000
M  END
> <Molecule Name>
CVD-0010482

> <SMILES>
OC(=O)CC(NC(=O)c1cncnc1)c1cccc(O)c1

$$$$

  CDD

  0  0  0  0  0  0            999 V2000
M  END
> <Molecule Name>
CVD-0010481

> <SMILES>
O=C(Nc1ccccc1CN1CCNC1=O)c1cncnc1

$$$$

  CDD

  0  0  0  0  0  0            999 V2000
M  END
> <Molecule Name>
CVD-0010480

> <SMILES>
O=C(NS(=O)(=O)c1cnc2ccccc2n1)c1cncnc1

$$$$

  CDD

  0  0  0  0  0  0            999 V2000
M  END
> <Molecule Name>
CVD-0010479

> <SMILES>
CC1(NC(=O)NC1=O)c1ccc(cc1)C(=O)NC(=O)c1cncnc1

$$$$

  CDD

  0  0  0  0  0  0            999 V2000
M  END
> <Molecule Name>
CVD-0010478

> <SMILES>
CCC(=O)Nc1cccc(CNC(=O)c2cncnc2)c1

$$$$

  CDD

  0  0  0  0  0  0            999 V2000
M  END
> <Molecule Name>
CVD-0010477

> <SMILES>
Cc1nc(no1)C(NC(=O)c1cncnc1)c1ccccc1F

$$$$

  CDD

  0  0  0  0  0  0            999 V2000
M  END
> <Molecule Name>
CVD-0010476

> <SMILES>
OC1(CCNC(=O)c2cncnc2)C(=O)Nc2ccccc12

$$$$

  CDD

  0  0  0  0  0  0            999 V2000
M  END
> <Molecule Name>
CVD-0010475

> <SMILES>
O=C(CNC(=O)c1cncnc1)N1CCN(Cc2ccccc2)CC1

$$$$

  CDD

  0  0  0  0  0  0            999 V2000
M  END
> <Molecule Name>
CVD-0010474

> <SMILES>
O=C(NCc1ccco1)c1cccc(CNC(=O)c2cncnc2)c1

$$$$

  CDD

  0  0  0  0  0  0            999 V2000
M  END
> <Molecule Name>
CVD-0010473

> <SMILES>
OC(=O)c1cc(ccc1O)S(=O)(=O)NC(=O)c1cncnc1

$$$$

  CDD

  0  0  0  0  0  0            999 V2000
M  END
> <Molecule Name>
CVD-0010472

> <SMILES>
O=C(Nc1cccc(CN2C(=O)CNC2=O)c1)c1cncnc1

$$$$

  CDD

  0  0  0  0  0  0            999 V2000
M  END
> <Molecule Name>
CVD-0010471

> <SMILES>
CS(=O)(=O)NCc1ccccc1NC(=O)c1cncnc1

$$$$

  CDD

  0  0  0  0  0  0            999 V2000
M  END
> <Molecule Name>
CVD-0010470

> <SMILES>
O=C(NCc1ccccc1CN1CCCC1=O)c1cncnc1

$$$$

  CDD

  0  0  0  0  0  0            999 V2000
M  END
> <Molecule Name>
CVD-0010469

> <SMILES>
Oc1cccc(c1)C(=O)NCC(=O)NC(=O)c1cncnc1

$$$$

  CDD

  0  0  0  0  0  0            999 V2000
M  END
> <Molecule Name>
CVD-0010468

> <SMILES>
CNS(=O)(=O)c1cccc(c1)C(C)NC(=O)c1cncnc1

$$$$

  CDD

  0  0  0  0  0  0            999 V2000
M  END
> <Molecule Name>
CVD-0010467

> <SMILES>
O=C(NCc1ccc(CN2CCNC2=O)cc1)c1cncnc1

$$$$

  CDD

  0  0  0  0  0  0            999 V2000
M  END
> <Molecule Name>
CVD-0010466

> <SMILES>
O=C(Nc1cccc(c1)S(=O)(=O)Nc1cn[nH]c1)c1cncnc1

$$$$

  CDD

  0  0  0  0  0  0            999 V2000
M  END
> <Molecule Name>
CVD-0010465

> <SMILES>
O=C(Nc1ccccc1CN1C(=O)CNC1=O)c1cncnc1

$$$$

  CDD

  0  0  0  0  0  0            999 V2000
M  END
> <Molecule Name>
CVD-0010464

> <SMILES>
COc1ccc(cc1)C(C)(NC(=O)c1cncnc1)C(O)=O

$$$$

  CDD

  0  0  0  0  0  0            999 V2000
M  END
> <Molecule Name>
CVD-0010463

> <SMILES>
CC(NC(=O)c1cncnc1)c1cccc(c1)S(=O)(=O)N(C)C

$$$$

  CDD

  0  0  0  0  0  0            999 V2000
M  END
> <Molecule Name>
CVD-0010462

> <SMILES>
O=C(NCc1ccc(CN2CCCC2=O)cc1)c1cncnc1

$$$$

  CDD

  0  0  0  0  0  0            999 V2000
M  END
> <Molecule Name>
CVD-0010461

> <SMILES>
O=C(NCc1ccc(CN2C(=O)CNC2=O)cc1)c1cncnc1

$$$$

  CDD

  0  0  0  0  0  0            999 V2000
M  END
> <Molecule Name>
CVD-0010460

> <SMILES>
OC(=O)C(Cc1ccc2OCCCOc2c1)NC(=O)c1cncnc1

$$$$

  CDD

  0  0  0  0  0  0            999 V2000
M  END
> <Molecule Name>
CVD-0010459

> <SMILES>
COc1ccc(cc1)C(CC(O)=O)NC(=O)c1cncnc1

$$$$

  CDD

  0  0  0  0  0  0            999 V2000
M  END
> <Molecule Name>
CVD-0010458

> <SMILES>
O=C(NS(=O)(=O)c1[nH]cc2c1CCS2(=O)=O)c1cncnc1

$$$$

  CDD

  0  0  0  0  0  0            999 V2000
M  END
> <Molecule Name>
CVD-0010457

> <SMILES>
CS(=O)(=O)c1cc(ccc1Cl)S(=O)(=O)NC(=O)c1cncnc1

$$$$

  CDD

  0  0  0  0  0  0            999 V2000
M  END
> <Molecule Name>
CVD-0010456

> <SMILES>
CC(NS(=O)(=O)c1ccc(cc1)C(=O)NC(=O)c1cncnc1)C(O)=O

$$$$

  CDD

  0  0  0  0  0  0            999 V2000
M  END
> <Molecule Name>
CVD-0010455

> <SMILES>
CC(NC(=O)c1cncnc1)(C(O)=O)c1ccc(cc1)S(C)(=O)=O

$$$$

  CDD

  0  0  0  0  0  0            999 V2000
M  END
> <Molecule Name>
CVD-0010454

> <SMILES>
CS(=O)(=O)c1cc(ccc1F)S(=O)(=O)NC(=O)c1cncnc1

$$$$

  CDD

  0  0  0  0  0  0            999 V2000
M  END
> <Molecule Name>
CVD-0010453

> <SMILES>
CS(=O)(=O)c1ccc(CNC(=O)c2cncnc2)cc1Cl

$$$$

  CDD

  0  0  0  0  0  0            999 V2000
M  END
> <Molecule Name>
CVD-0010452

> <SMILES>
COc1c(F)cc(CC(O)=O)cc1S(=O)(=O)NC(=O)c1cncnc1

$$$$

  CDD

  0  0  0  0  0  0            999 V2000
M  END
> <Molecule Name>
CVD-0010451

> <SMILES>
O=C(Nc1cccc(c1)S(=O)(=O)Nc1nccs1)c1cncnc1

$$$$

  CDD

  0  0  0  0  0  0            999 V2000
M  END
> <Molecule Name>
CVD-0010450

> <SMILES>
OC(=O)C(CCC(=O)NC(=O)c1cncnc1)N1C(=O)c2ccccc2C1=O

$$$$

  CDD

  0  0  0  0  0  0            999 V2000
M  END
> <Molecule Name>
CVD-0010449

> <SMILES>
CC1(NC(=O)NC1=O)c1cccc(NC(=O)c2cncnc2)c1

$$$$

  CDD

  0  0  0  0  0  0            999 V2000
M  END
> <Molecule Name>
CVD-0010448

> <SMILES>
OC(=O)C1(CCN(Cc2ccccc2)C1)NC(=O)c1cncnc1

$$$$

  CDD

  0  0  0  0  0  0            999 V2000
M  END
> <Molecule Name>
CVD-0010447

> <SMILES>
CN1C(=O)c2ccc(cc2C1=O)S(=O)(=O)NC(=O)c1cncnc1

$$$$

  CDD

  0  0  0  0  0  0            999 V2000
M  END
> <Molecule Name>
CVD-0010446

> <SMILES>
CS(=O)(=O)c1ccc(cc1)C1(CCOC1)NC(=O)c1cncnc1

$$$$

  CDD

  0  0  0  0  0  0            999 V2000
M  END
> <Molecule Name>
CVD-0010445

> <SMILES>
O=C(NS(=O)(=O)c1ccc2nc[nH]c(=O)c2c1)c1cncnc1

$$$$

  CDD

  0  0  0  0  0  0            999 V2000
M  END
> <Molecule Name>
CVD-0010444

> <SMILES>
CC(NC(=O)c1cncnc1)c1ccc(cc1)S(=O)(=O)N(C)C

$$$$

  CDD

  0  0  0  0  0  0            999 V2000
M  END
> <Molecule Name>
CVD-0010443

> <SMILES>
O=C(Nc1ccc(cc1)C1CC(=O)NC(=O)N1)c1cncnc1

$$$$

  CDD

  0  0  0  0  0  0            999 V2000
M  END
> <Molecule Name>
CVD-0010442

> <SMILES>
CC1(NC(=O)NC1=O)c1cccc(CNC(=O)c2cncnc2)c1

$$$$

  CDD

  0  0  0  0  0  0            999 V2000
M  END
> <Molecule Name>
CVD-0010441

> <SMILES>
CC(NC(=O)c1cncnc1)c1ccc2[nH]c(=O)[nH]c2c1

$$$$

  CDD

  0  0  0  0  0  0            999 V2000
M  END
> <Molecule Name>
CVD-0010440

> <SMILES>
CC(NC(=O)c1cncnc1)c1ccc(cc1)N1CCCNC1=O

$$$$

  CDD

  0  0  0  0  0  0            999 V2000
M  END
> <Molecule Name>
CVD-0010439

> <SMILES>
COC(=O)c1c(CNC(=O)c2cncnc2)nn2CCCCc12

$$$$

  CDD

  0  0  0  0  0  0            999 V2000
M  END
> <Molecule Name>
CVD-0010438

> <SMILES>
O=C(NCc1ccncc1)Nc1cccc(CNC(=O)c2cncnc2)c1

$$$$

  CDD

  0  0  0  0  0  0            999 V2000
M  END
> <Molecule Name>
CVD-0010437

> <SMILES>
OC(=O)C(NC(=O)c1cncnc1)c1ccc(Cl)c(F)c1

$$$$

  CDD

  0  0  0  0  0  0            999 V2000
M  END
> <Molecule Name>
CVD-0010436

> <SMILES>
OC(=O)C(NC(=O)c1cncnc1)c1c(Cl)cccc1Cl

$$$$

  CDD

  0  0  0  0  0  0            999 V2000
M  END
> <Molecule Name>
CVD-0010435

> <SMILES>
COc1ccc(cc1)C(CN(C)C)NC(=O)c1cncnc1

$$$$

  CDD

  0  0  0  0  0  0            999 V2000
M  END
> <Molecule Name>
CVD-0010434

> <SMILES>
O=C(Nc1ccc(cc1)S(=O)(=O)NCc1ccco1)c1cncnc1

$$$$

  CDD

  0  0  0  0  0  0            999 V2000
M  END
> <Molecule Name>
CVD-0010433

> <SMILES>
COc1cccc(c1)C1OCCCC1NC(=O)c1cncnc1

$$$$

  CDD

  0  0  0  0  0  0            999 V2000
M  END
> <Molecule Name>
CVD-0010432

> <SMILES>
Clc1cccc(Cl)c1C(NC(=O)c1cncnc1)C#N

$$$$

  CDD

  0  0  0  0  0  0            999 V2000
M  END
> <Molecule Name>
CVD-0010431

> <SMILES>
COC(=O)CC(C)(NC(=O)c1cncnc1)c1cccc(OC)c1

$$$$

  CDD

  0  0  0  0  0  0            999 V2000
M  END
> <Molecule Name>
CVD-0010430

> <SMILES>
OC1CCN(Cc2ccccc2CNC(=O)c2cncnc2)C1

$$$$

  CDD

  0  0  0  0  0  0            999 V2000
M  END
> <Molecule Name>
CVD-0010429

> <SMILES>
O=C(NS(=O)(=O)c1cccc2OCCOc12)c1cncnc1

$$$$

  CDD

  0  0  0  0  0  0            999 V2000
M  END
> <Molecule Name>
CVD-0010428

> <SMILES>
COc1cccc(c1)C(CNC(=O)c1cncnc1)N(C)C

$$$$

  CDD

  0  0  0  0  0  0            999 V2000
M  END
> <Molecule Name>
CVD-0010427

> <SMILES>
COC(=O)CNS(=O)(=O)c1cccc(NC(=O)c2cncnc2)c1

$$$$

  CDD

  0  0  0  0  0  0            999 V2000
M  END
> <Molecule Name>
CVD-0010426

> <SMILES>
COc1ccccc1C(NC(=O)c1cncnc1)c1noc(C)n1

$$$$

  CDD

  0  0  0  0  0  0            999 V2000
M  END
> <Molecule Name>
CVD-0010425

> <SMILES>
COc1ccc(CNC(=O)CNC(=O)c2cncnc2)cc1

$$$$

  CDD

  0  0  0  0  0  0            999 V2000
M  END
> <Molecule Name>
CVD-0010424

> <SMILES>
Clc1cc2NC(=O)Cc2cc1S(=O)(=O)NC(=O)c1cncnc1

$$$$

  CDD

  0  0  0  0  0  0            999 V2000
M  END
> <Molecule Name>
CVD-0010423

> <SMILES>
CC(NC(=O)c1cncnc1)c1ccc2[nH]c(=O)oc2c1

$$$$

  CDD

  0  0  0  0  0  0            999 V2000
M  END
> <Molecule Name>
CVD-0010422

> <SMILES>
Fc1cc(ccc1-n1cccn1)S(=O)(=O)NC(=O)c1cncnc1

$$$$

  CDD

  0  0  0  0  0  0            999 V2000
M  END
> <Molecule Name>
CVD-0010421

> <SMILES>
COC(=O)CCC(NC(=O)c1cncnc1)c1ccc(OC)cc1

$$$$

  CDD

  0  0  0  0  0  0            999 V2000
M  END
> <Molecule Name>
CVD-0010420

> <SMILES>
COc1ccc(cc1F)C(NC(=O)c1cncnc1)C(O)=O

$$$$

  CDD

  0  0  0  0  0  0            999 V2000
M  END
> <Molecule Name>
CVD-0010419

> <SMILES>
CCOC(=O)C(NC(=O)c1cncnc1)c1ccc(OC)c(Br)c1

$$$$

  CDD

  0  0  0  0  0  0            999 V2000
M  END
> <Molecule Name>
CVD-0010418

> <SMILES>
COc1c(F)cc(Br)cc1S(=O)(=O)NC(=O)c1cncnc1

$$$$

  CDD

  0  0  0  0  0  0            999 V2000
M  END
> <Molecule Name>
CVD-0010417

> <SMILES>
O=C(Cn1cccn1)Nc1cccc(CNC(=O)c2cncnc2)c1

$$$$

  CDD

  0  0  0  0  0  0            999 V2000
M  END
> <Molecule Name>
CVD-0010416

> <SMILES>
COC(=O)CC(C)(NC(=O)c1cncnc1)c1cccc(F)c1

$$$$

  CDD

  0  0  0  0  0  0            999 V2000
M  END
> <Molecule Name>
CVD-0010415

> <SMILES>
CC(C)NCc1ccccc1NC(=O)c1cncnc1

$$$$

  CDD

  0  0  0  0  0  0            999 V2000
M  END
> <Molecule Name>
CVD-0010414

> <SMILES>
CC(NC(=O)c1cncnc1)c1cccc(NS(C)(=O)=O)c1

$$$$

  CDD

  0  0  0  0  0  0            999 V2000
M  END
> <Molecule Name>
CVD-0010413

> <SMILES>
O=C(NCc1ccc(cc1)N1CCNC(=O)C1)c1cncnc1

$$$$

  CDD

  0  0  0  0  0  0            999 V2000
M  END
> <Molecule Name>
CVD-0010412

> <SMILES>
O=C(NC1COCC1c1nc(no1)C1CC1)c1cncnc1

$$$$

  CDD

  0  0  0  0  0  0            999 V2000
M  END
> <Molecule Name>
CVD-0010411

> <SMILES>
CC(C)(NC(=O)c1cncnc1)c1nnc2CCCCn12

$$$$

  CDD

  0  0  0  0  0  0            999 V2000
M  END
> <Molecule Name>
CVD-0010410

> <SMILES>
O=C(NCc1cccc(c1)N1CCCC1=O)c1cncnc1

$$$$

  CDD

  0  0  0  0  0  0            999 V2000
M  END
> <Molecule Name>
CVD-0010409

> <SMILES>
O=C(NCCN1c2ccccc2NS1(=O)=O)c1cncnc1

$$$$

  CDD

  0  0  0  0  0  0            999 V2000
M  END
> <Molecule Name>
CVD-0010408

> <SMILES>
CN1C(C(CNC(=O)c2cncnc2)CC1=O)c1cnn(Cc2ccccc2)c1

$$$$

  CDD

  0  0  0  0  0  0            999 V2000
M  END
> <Molecule Name>
CVD-0010407

> <SMILES>
COC(=O)CC(C)(NC(=O)c1cncnc1)c1ccc(F)cc1

$$$$

  CDD

  0  0  0  0  0  0            999 V2000
M  END
> <Molecule Name>
CVD-0010406

> <SMILES>
OCC1CCCN1Cc1ccccc1CNC(=O)c1cncnc1

$$$$

  CDD

  0  0  0  0  0  0            999 V2000
M  END
> <Molecule Name>
CVD-0010405

> <SMILES>
O=C(NCc1ccccc1S(=O)(=O)N1CCOCC1)c1cncnc1

$$$$

  CDD

  0  0  0  0  0  0            999 V2000
M  END
> <Molecule Name>
CVD-0010404

> <SMILES>
CCC(C)NC(=O)c1ccccc1NC(=O)c1cncnc1

$$$$

  CDD

  0  0  0  0  0  0            999 V2000
M  END
> <Molecule Name>
CVD-0010403

> <SMILES>
Cc1nnc(o1)C(NC(=O)c1cncnc1)C1CCCOC1

$$$$

  CDD

  0  0  0  0  0  0            999 V2000
M  END
> <Molecule Name>
CVD-0010402

> <SMILES>
OC(=O)C(NC(=O)c1cncnc1)c1ccc(F)c(Cl)c1

$$$$

  CDD

  0  0  0  0  0  0            999 V2000
M  END
> <Molecule Name>
CVD-0010401

> <SMILES>
O=C(NCc1ccco1)c1ccccc1NC(=O)c1cncnc1

$$$$

  CDD

  0  0  0  0  0  0            999 V2000
M  END
> <Molecule Name>
CVD-0010400

> <SMILES>
O=C(NCc1cccc2OCC(=O)Nc12)c1cncnc1

$$$$

  CDD

  0  0  0  0  0  0            999 V2000
M  END
> <Molecule Name>
CVD-0010399

> <SMILES>
Fc1cc(ccc1Cl)C(NC(=O)c1cncnc1)c1nnn[nH]1

$$$$

  CDD

  0  0  0  0  0  0            999 V2000
M  END
> <Molecule Name>
CVD-0010398

> <SMILES>
O=C(NC1COCC1n1cc(nn1)C1CC1)c1cncnc1

$$$$

  CDD

  0  0  0  0  0  0            999 V2000
M  END
> <Molecule Name>
CVD-0010397

> <SMILES>
OC(=O)c1cc(ccc1Cl)S(=O)(=O)NCC(=O)NC(=O)c1cncnc1

$$$$

  CDD

  0  0  0  0  0  0            999 V2000
M  END
> <Molecule Name>
CVD-0010396

> <SMILES>
CNC(=O)C(NC(=O)c1cncnc1)c1ccc(F)c(F)c1

$$$$

  CDD

  0  0  0  0  0  0            999 V2000
M  END
> <Molecule Name>
CVD-0010395

> <SMILES>
Fc1cccc(c1)C1(CCOCC1)NC(=O)c1cncnc1

$$$$

  CDD

  0  0  0  0  0  0            999 V2000
M  END
> <Molecule Name>
CVD-0010394

> <SMILES>
O=C(NS(=O)(=O)c1ccc2OCCOc2c1)c1cncnc1

$$$$

  CDD

  0  0  0  0  0  0            999 V2000
M  END
> <Molecule Name>
CVD-0010393

> <SMILES>
OC1CCN(Cc2ccc(CNC(=O)c3cncnc3)cc2)C1

$$$$

  CDD

  0  0  0  0  0  0            999 V2000
M  END
> <Molecule Name>
CVD-0010392

> <SMILES>
O=C(NC1CC1)Nc1cccc(CNC(=O)c2cncnc2)c1

$$$$

  CDD

  0  0  0  0  0  0            999 V2000
M  END
> <Molecule Name>
CVD-0010391

> <SMILES>
COc1ccc(cc1)C(CCC(O)=O)NC(=O)c1cncnc1

$$$$

  CDD

  0  0  0  0  0  0            999 V2000
M  END
> <Molecule Name>
CVD-0010390

> <SMILES>
CC(NC(=O)c1cncnc1)c1cccc(c1)N1CCCC1=O

$$$$

  CDD

  0  0  0  0  0  0            999 V2000
M  END
> <Molecule Name>
CVD-0010389

> <SMILES>
Oc1cccc(c1)C(CNC(=O)c1cncnc1)N1CCCC1

$$$$

  CDD

  0  0  0  0  0  0            999 V2000
M  END
> <Molecule Name>
CVD-0010388

> <SMILES>
COc1ccc(cc1)C(CCO)NC(=O)c1cncnc1

$$$$

  CDD

  0  0  0  0  0  0            999 V2000
M  END
> <Molecule Name>
CVD-0010387

> <SMILES>
COC(=O)CC(NC(=O)c1cncnc1)c1ccc(OC)cc1

$$$$

  CDD

  0  0  0  0  0  0            999 V2000
M  END
> <Molecule Name>
CVD-0010386

> <SMILES>
CC(NC(=O)c1cncnc1)c1cccc(c1)N1CCOC1=O

$$$$

  CDD

  0  0  0  0  0  0            999 V2000
M  END
> <Molecule Name>
CVD-0010385

> <SMILES>
CC(C)(C)OCc1cccc(CNC(=O)c2cncnc2)c1

$$$$

  CDD

  0  0  0  0  0  0            999 V2000
M  END
> <Molecule Name>
CVD-0010384

> <SMILES>
CCNC(=O)C[S+]([O-])c1cccc(NC(=O)c2cncnc2)c1

$$$$

  CDD

  0  0  0  0  0  0            999 V2000
M  END
> <Molecule Name>
CVD-0010383

> <SMILES>
Cc1cc(Cl)c2cccc(c2n1)S(=O)(=O)NC(=O)c1cncnc1

$$$$

  CDD

  0  0  0  0  0  0            999 V2000
M  END
> <Molecule Name>
CVD-0010382

> <SMILES>
COC(=O)C(C)(NC(=O)c1cncnc1)c1ccc(OC)cc1

$$$$

  CDD

  0  0  0  0  0  0            999 V2000
M  END
> <Molecule Name>
CVD-0010381

> <SMILES>
O=C(Nc1cccc(CN2CCCS2(=O)=O)c1)c1cncnc1

$$$$

  CDD

  0  0  0  0  0  0            999 V2000
M  END
> <Molecule Name>
CVD-0010380

> <SMILES>
CNC(=O)CNC(=O)c1cccc(NC(=O)c2cncnc2)c1

$$$$

  CDD

  0  0  0  0  0  0            999 V2000
M  END
> <Molecule Name>
CVD-0010379

> <SMILES>
CC(=O)NCc1ccc(s1)S(=O)(=O)NC(=O)c1cncnc1

$$$$

  CDD

  0  0  0  0  0  0            999 V2000
M  END
> <Molecule Name>
CVD-0010378

> <SMILES>
CC(=O)NCCNS(=O)(=O)c1cccc(NC(=O)c2cncnc2)c1

$$$$

  CDD

  0  0  0  0  0  0            999 V2000
M  END
> <Molecule Name>
CVD-0010377

> <SMILES>
CC(NC(=O)c1cncnc1)c1cccc(c1)N1CCNC1=O

$$$$

  CDD

  0  0  0  0  0  0            999 V2000
M  END
> <Molecule Name>
CVD-0010376

> <SMILES>
CN(c1ccc(CNC(=O)c2cncnc2)cc1)S(C)(=O)=O

$$$$

  CDD

  0  0  0  0  0  0            999 V2000
M  END
> <Molecule Name>
CVD-0010375

> <SMILES>
O=C(Nc1cccc(c1)S(=O)(=O)N1CCOCC1)c1cncnc1

$$$$

  CDD

  0  0  0  0  0  0            999 V2000
M  END
> <Molecule Name>
CVD-0010374

> <SMILES>
COCC(=O)Nc1cccc(CNC(=O)c2cncnc2)c1

$$$$

  CDD

  0  0  0  0  0  0            999 V2000
M  END
> <Molecule Name>
CVD-0010373

> <SMILES>
COc1ccc(cc1C(O)=O)C(C)NC(=O)c1cncnc1

$$$$

  CDD

  0  0  0  0  0  0            999 V2000
M  END
> <Molecule Name>
CVD-0010372

> <SMILES>
COc1ccc(cc1)C(NC(=O)c1cncnc1)c1ccco1

$$$$

  CDD

  0  0  0  0  0  0            999 V2000
M  END
> <Molecule Name>
CVD-0010371

> <SMILES>
Clc1cc(c2ncccc2c1)S(=O)(=O)NC(=O)c1cncnc1

$$$$

  CDD

  0  0  0  0  0  0            999 V2000
M  END
> <Molecule Name>
CVD-0010370

> <SMILES>
O=C(NC1CCCN(C1)S(=O)(=O)C1CC1)c1cncnc1

$$$$

  CDD

  0  0  0  0  0  0            999 V2000
M  END
> <Molecule Name>
CVD-0010369

> <SMILES>
COc1ccc(cc1)C(NC(=O)c1cncnc1)c1nccn1C

$$$$

  CDD

  0  0  0  0  0  0            999 V2000
M  END
> <Molecule Name>
CVD-0010368

> <SMILES>
CN(C)C(=O)Nc1cccc(CNC(=O)c2cncnc2)c1

$$$$

  CDD

  0  0  0  0  0  0            999 V2000
M  END
> <Molecule Name>
CVD-0010367

> <SMILES>
COc1nccnc1NS(=O)(=O)c1ccc(NC(=O)c2cncnc2)cc1

$$$$

  CDD

  0  0  0  0  0  0            999 V2000
M  END
> <Molecule Name>
CVD-0010366

> <SMILES>
O=C(Nc1cccc(c1)S(=O)(=O)NC1=NCCC1)c1cncnc1

$$$$

  CDD

  0  0  0  0  0  0            999 V2000
M  END
> <Molecule Name>
CVD-0010365

> <SMILES>
CN(C)CC(=O)Nc1cccc(CNC(=O)c2cncnc2)c1

$$$$

  CDD

  0  0  0  0  0  0            999 V2000
M  END
> <Molecule Name>
CVD-0010364

> <SMILES>
OC(=O)C(NC(=O)c1cncnc1)c1cccc(Cl)c1Cl

$$$$

  CDD

  0  0  0  0  0  0            999 V2000
M  END
> <Molecule Name>
CVD-0010363

> <SMILES>
O=C(NS(=O)(=O)c1csc(c1)C1OCCO1)c1cncnc1

$$$$

  CDD

  0  0  0  0  0  0            999 V2000
M  END
> <Molecule Name>
CVD-0010362

> <SMILES>
O=C(NCC1CC2(CCO1)NC(=O)N(Cc1ccccc1)C2=O)c1cncnc1

$$$$

  CDD

  0  0  0  0  0  0            999 V2000
M  END
> <Molecule Name>
CVD-0010361

> <SMILES>
CC(=O)NCCNC(=O)c1ccccc1NC(=O)c1cncnc1

$$$$

  CDD

  0  0  0  0  0  0            999 V2000
M  END
> <Molecule Name>
CVD-0010360

> <SMILES>
COc1cccc(c1)C(NC(=O)c1cncnc1)c1nccn1C

$$$$

  CDD

  0  0  0  0  0  0            999 V2000
M  END
> <Molecule Name>
CVD-0010359

> <SMILES>
O=C(NCC1CCCO1)c1cccc(CNC(=O)c2cncnc2)c1

$$$$

  CDD

  0  0  0  0  0  0            999 V2000
M  END
> <Molecule Name>
CVD-0010358

> <SMILES>
O=C(Cc1ccc(NC(=O)c2cncnc2)cc1)N1CCN(CC1)c1ncccn1

$$$$

  CDD

  0  0  0  0  0  0            999 V2000
M  END
> <Molecule Name>
CVD-0010357

> <SMILES>
CC(C)C(=O)Nc1cccc(CNC(=O)c2cncnc2)c1

$$$$

  CDD

  0  0  0  0  0  0            999 V2000
M  END
> <Molecule Name>
CVD-0010356

> <SMILES>
OCCC(NC(=O)c1cncnc1)c1ccc(Cl)c(F)c1

$$$$

  CDD

  0  0  0  0  0  0            999 V2000
M  END
> <Molecule Name>
CVD-0010355

> <SMILES>
O=C(Nc1cccc(CNC(=O)c2cncnc2)c1)N1CCCC1

$$$$

  CDD

  0  0  0  0  0  0            999 V2000
M  END
> <Molecule Name>
CVD-0010354

> <SMILES>
CN(C)c1nnc([nH]1)C1CC(O)C(CNC(=O)c2cncnc2)C1

$$$$

  CDD

  0  0  0  0  0  0            999 V2000
M  END
> <Molecule Name>
CVD-0010353

> <SMILES>
COC(=O)C(Cc1c[nH]c2cc(F)ccc12)NC(=O)c1cncnc1

$$$$

  CDD

  0  0  0  0  0  0            999 V2000
M  END
> <Molecule Name>
CVD-0010352

> <SMILES>
CNC(=O)c1cc(CNC(=O)c2cncnc2)n2CCCCc12

$$$$

  CDD

  0  0  0  0  0  0            999 V2000
M  END
> <Molecule Name>
CVD-0010351

> <SMILES>
COC(=O)c1ccc(O)cc1S(=O)(=O)NC(=O)c1cncnc1

$$$$

  CDD

  0  0  0  0  0  0            999 V2000
M  END
> <Molecule Name>
CVD-0010350

> <SMILES>
O=C(NCc1cccc(c1)S(=O)(=O)N1CCNC(=O)C1)c1cncnc1

$$$$

  CDD

  0  0  0  0  0  0            999 V2000
M  END
> <Molecule Name>
CVD-0010349

> <SMILES>
CN1CCOC(C1)C(NC(=O)c1cncnc1)c1ccc(Cl)cc1

$$$$

  CDD

  0  0  0  0  0  0            999 V2000
M  END
> <Molecule Name>
CVD-0010348

> <SMILES>
Fc1ccc(cc1CNC(=O)c1cncnc1)C1OCCO1

$$$$

  CDD

  0  0  0  0  0  0            999 V2000
M  END
> <Molecule Name>
CVD-0010347

> <SMILES>
Cc1cc(C(O)=O)c(C)n1Cc1ccc(cc1)S(=O)(=O)NC(=O)c1cncnc1

$$$$

  CDD

  0  0  0  0  0  0            999 V2000
M  END
> <Molecule Name>
CVD-0010346

> <SMILES>
COc1ccc(cc1C(O)=O)S(=O)(=O)NC(=O)c1cncnc1

$$$$

  CDD

  0  0  0  0  0  0            999 V2000
M  END
> <Molecule Name>
CVD-0010345

> <SMILES>
O=C(Nc1cccc(CNC(=O)c2cncnc2)c1)C1CCCO1

$$$$

  CDD

  0  0  0  0  0  0            999 V2000
M  END
> <Molecule Name>
CVD-0010344

> <SMILES>
O=C(Nc1cccc(CNC(=O)c2cncnc2)c1)c1ccco1

$$$$

  CDD

  0  0  0  0  0  0            999 V2000
M  END
> <Molecule Name>
CVD-0010343

> <SMILES>
O=C(NCc1cccc(NC(=O)c2ccncc2)c1)c1cncnc1

$$$$

  CDD

  0  0  0  0  0  0            999 V2000
M  END
> <Molecule Name>
CVD-0010342

> <SMILES>
OC(=O)C1CN(C(=O)C1)c1cccc(c1)S(=O)(=O)NC(=O)c1cncnc1

$$$$

  CDD

  0  0  0  0  0  0            999 V2000
M  END
> <Molecule Name>
CVD-0010341

> <SMILES>
CC(C)Cn1cc(NC(=O)NC2=NN(CC2)c2ccccc2)c2ccccc2c1=O

$$$$

  CDD

  0  0  0  0  0  0            999 V2000
M  END
> <Molecule Name>
CVD-0010340

> <SMILES>
Cn1cc(NC(=O)Nc2ccccn2)c2ccccc2c1=O

$$$$

  CDD

  0  0  0  0  0  0            999 V2000
M  END
> <Molecule Name>
CVD-0010339

> <SMILES>
Cc1ccc(CNC(=O)c2cncnc2)c(n1)-n1cncn1

$$$$

  CDD

  0  0  0  0  0  0            999 V2000
M  END
> <Molecule Name>
CVD-0010338

> <SMILES>
O=C(Nc1ccc(cc1)S(=O)(=O)NC(=O)c1cncnc1)C1CCNCC1

$$$$

  CDD

  0  0  0  0  0  0            999 V2000
M  END
> <Molecule Name>
CVD-0010337

> <SMILES>
COc1ccc(C(NC(=O)c2cncnc2)C#N)c(OC)c1

$$$$

  CDD

  0  0  0  0  0  0            999 V2000
M  END
> <Molecule Name>
CVD-0010336

> <SMILES>
O=C(NC1(CCOCC1)c1nc(no1)C1CC1)c1cncnc1

$$$$

  CDD

  0  0  0  0  0  0            999 V2000
M  END
> <Molecule Name>
CVD-0010335

> <SMILES>
Cc1ccc(cn1)C1OCCCC1NC(=O)c1cncnc1

$$$$

  CDD

  0  0  0  0  0  0            999 V2000
M  END
> <Molecule Name>
CVD-0010334

> <SMILES>
CN1C(C(CC1=O)NC(=O)c1cncnc1)c1ccc(Cl)c(Cl)c1

$$$$

  CDD

  0  0  0  0  0  0            999 V2000
M  END
> <Molecule Name>
CVD-0010333

> <SMILES>
O=C(Nc1nc(cs1)-c1ccc2OCC(=O)Nc2c1)c1cncnc1

$$$$

  CDD

  0  0  0  0  0  0            999 V2000
M  END
> <Molecule Name>
CVD-0010332

> <SMILES>
Cn1nccc1C(NC(=O)c1cncnc1)c1cccnc1

$$$$

  CDD

  0  0  0  0  0  0            999 V2000
M  END
> <Molecule Name>
CVD-0010331

> <SMILES>
COc1cc(Br)c(cc1OC)S(=O)(=O)NC(=O)c1cncnc1

$$$$

  CDD

  0  0  0  0  0  0            999 V2000
M  END
> <Molecule Name>
CVD-0010330

> <SMILES>
COC(=O)C(NC(=O)c1cncnc1)c1ccc(Cl)cc1Cl

$$$$

  CDD

  0  0  0  0  0  0            999 V2000
M  END
> <Molecule Name>
CVD-0010329

> <SMILES>
Clc1ccc2c(c[nH]c2c1)S(=O)(=O)NC(=O)c1cncnc1

$$$$

  CDD

  0  0  0  0  0  0            999 V2000
M  END
> <Molecule Name>
CVD-0010328

> <SMILES>
CC(=O)Nc1ccc(CN2CCC(CC2)NC(=O)c2cncnc2)cc1

$$$$

  CDD

  0  0  0  0  0  0            999 V2000
M  END
> <Molecule Name>
CVD-0010327

> <SMILES>
CC1Oc2ccc(cc2NC1=O)S(=O)(=O)NC(=O)c1cncnc1

$$$$

  CDD

  0  0  0  0  0  0            999 V2000
M  END
> <Molecule Name>
CVD-0010326

> <SMILES>
O=C(NS(=O)(=O)c1cnc2ccccn12)c1cncnc1

$$$$

  CDD

  0  0  0  0  0  0            999 V2000
M  END
> <Molecule Name>
CVD-0010325

> <SMILES>
CCN1C(C(CC1=O)NC(=O)c1cncnc1)c1cccnc1

$$$$

  CDD

  0  0  0  0  0  0            999 V2000
M  END
> <Molecule Name>
CVD-0010324

> <SMILES>
O=C(NCC1CCC(O1)c1nc(n[nH]1)C1CC1)c1cncnc1

$$$$

  CDD

  0  0  0  0  0  0            999 V2000
M  END
> <Molecule Name>
CVD-0010323

> <SMILES>
CCS(=O)(=O)c1cccnc1S(=O)(=O)NC(=O)c1cncnc1

$$$$

  CDD

  0  0  0  0  0  0            999 V2000
M  END
> <Molecule Name>
CVD-0010322

> <SMILES>
Cn1cncc1C1C(CNC(=O)c2cncnc2)CCCN1C1CC1

$$$$

  CDD

  0  0  0  0  0  0            999 V2000
M  END
> <Molecule Name>
CVD-0010321

> <SMILES>
CC(NC(=O)c1cncnc1)c1nc(cs1)-c1cccnc1

$$$$

  CDD

  0  0  0  0  0  0            999 V2000
M  END
> <Molecule Name>
CVD-0010320

> <SMILES>
COC(=O)C(C)(NC(=O)c1cncnc1)c1ccc(Cl)c(Cl)c1

$$$$

  CDD

  0  0  0  0  0  0            999 V2000
M  END
> <Molecule Name>
CVD-0010319

> <SMILES>
CN(C)CCOc1ncccc1CNC(=O)c1cncnc1

$$$$

  CDD

  0  0  0  0  0  0            999 V2000
M  END
> <Molecule Name>
CVD-0010318

> <SMILES>
CCCn1c2ccc(cc2[nH]c1=O)S(=O)(=O)NC(=O)c1cncnc1

$$$$

  CDD

  0  0  0  0  0  0            999 V2000
M  END
> <Molecule Name>
CVD-0010317

> <SMILES>
CCN(CC)C(CNC(=O)c1cncnc1)c1cccc(OC)c1

$$$$

  CDD

  0  0  0  0  0  0            999 V2000
M  END
> <Molecule Name>
CVD-0010316

> <SMILES>
Cn1cc(cn1)C(NC(=O)c1cncnc1)c1cccnc1

$$$$

  CDD

  0  0  0  0  0  0            999 V2000
M  END
> <Molecule Name>
CVD-0010315

> <SMILES>
Clc1cccc(c1)N1CCN(CC1)C(=O)CNC(=O)c1cncnc1

$$$$

  CDD

  0  0  0  0  0  0            999 V2000
M  END
> <Molecule Name>
CVD-0010314

> <SMILES>
OC(=O)c1cc(sc1Cl)S(=O)(=O)NC(=O)c1cncnc1

$$$$

  CDD

  0  0  0  0  0  0            999 V2000
M  END
> <Molecule Name>
CVD-0010313

> <SMILES>
CC(C)C(NC(=O)c1cncnc1)c1ccc2OCCCOc2c1

$$$$

  CDD

  0  0  0  0  0  0            999 V2000
M  END
> <Molecule Name>
CVD-0010312

> <SMILES>
CC(=O)NCc1ccc(s1)-c1csc(NC(=O)c2cncnc2)n1

$$$$

  CDD

  0  0  0  0  0  0            999 V2000
M  END
> <Molecule Name>
CVD-0010311

> <SMILES>
CN1C(C(CNC(=O)NC(=O)c2cncnc2)CC1=O)C1CCCNC1

$$$$

  CDD

  0  0  0  0  0  0            999 V2000
M  END
> <Molecule Name>
CVD-0010310

> <SMILES>
OC(=O)CC(NC(=O)c1cncnc1)c1ccc2OCOc2c1

$$$$

  CDD

  0  0  0  0  0  0            999 V2000
M  END
> <Molecule Name>
CVD-0010309

> <SMILES>
COC(=O)C(NC(=O)c1cncnc1)c1ccc(OC)c(Cl)c1

$$$$

  CDD

  0  0  0  0  0  0            999 V2000
M  END
> <Molecule Name>
CVD-0010308

> <SMILES>
COc1ccc(cc1)C(CN1CCCC1)NC(=O)c1cncnc1

$$$$

  CDD

  0  0  0  0  0  0            999 V2000
M  END
> <Molecule Name>
CVD-0010307

> <SMILES>
Clc1nc2ccccn2c1S(=O)(=O)NC(=O)c1cncnc1

$$$$

  CDD

  0  0  0  0  0  0            999 V2000
M  END
> <Molecule Name>
CVD-0010306

> <SMILES>
CC(C)C(NC(=O)c1cncnc1)c1nnc2ccccn12

$$$$

  CDD

  0  0  0  0  0  0            999 V2000
M  END
> <Molecule Name>
CVD-0010305

> <SMILES>
OC(=O)C(NC(=O)c1cncnc1)c1ccc(Cl)cc1Cl

$$$$

  CDD

  0  0  0  0  0  0            999 V2000
M  END
> <Molecule Name>
CVD-0010304

> <SMILES>
Oc1ccc(cc1NC(=O)c1cncnc1)S(=O)(=O)N1CCOCC1

$$$$

  CDD

  0  0  0  0  0  0            999 V2000
M  END
> <Molecule Name>
CVD-0010303

> <SMILES>
CC(=O)Nc1ccc(cc1)S(=O)(=O)N1CCC(CC1)NC(=O)c1cncnc1

$$$$

  CDD

  0  0  0  0  0  0            999 V2000
M  END
> <Molecule Name>
CVD-0010302

> <SMILES>
CN1C(C(CC1=O)NC(=O)c1cncnc1)c1ccc(Cl)c(F)c1

$$$$

  CDD

  0  0  0  0  0  0            999 V2000
M  END
> <Molecule Name>
CVD-0010301

> <SMILES>
CC(NC(=O)c1cncnc1)C(O)c1ccc2OCOc2c1

$$$$

  CDD

  0  0  0  0  0  0            999 V2000
M  END
> <Molecule Name>
CVD-0010300

> <SMILES>
Cn1c2ccc(cc2n(C)c1=O)S(=O)(=O)NC(=O)c1cncnc1

$$$$

  CDD

  0  0  0  0  0  0            999 V2000
M  END
> <Molecule Name>
CVD-0010299

> <SMILES>
Brc1cnc2[nH]cc(c2c1)S(=O)(=O)NC(=O)c1cncnc1

$$$$

  CDD

  0  0  0  0  0  0            999 V2000
M  END
> <Molecule Name>
CVD-0010298

> <SMILES>
COc1ccc(cc1)C(CC(=O)OC(C)C)NC(=O)c1cncnc1

$$$$

  CDD

  0  0  0  0  0  0            999 V2000
M  END
> <Molecule Name>
CVD-0010297

> <SMILES>
CCOC(=O)CC(NC(=O)c1cncnc1)c1ccc(F)cc1F

$$$$

  CDD

  0  0  0  0  0  0            999 V2000
M  END
> <Molecule Name>
CVD-0010296

> <SMILES>
O=C(Nc1cccc(c1)N1CCCNC1=O)c1cncnc1

$$$$

  CDD

  0  0  0  0  0  0            999 V2000
M  END
> <Molecule Name>
CVD-0010295

> <SMILES>
Cc1ncc(cc1C(O)=O)S(=O)(=O)NC(=O)c1cncnc1

$$$$

  CDD

  0  0  0  0  0  0            999 V2000
M  END
> <Molecule Name>
CVD-0010294

> <SMILES>
OC(=O)CCC(NC(=O)c1cncnc1)c1ccc(Cl)c(Cl)c1

$$$$

  CDD

  0  0  0  0  0  0            999 V2000
M  END
> <Molecule Name>
CVD-0010293

> <SMILES>
CN(C)S(=O)(=O)c1ccc(CNC(=O)c2cncnc2)s1

$$$$

  CDD

  0  0  0  0  0  0            999 V2000
M  END
> <Molecule Name>
CVD-0010292

> <SMILES>
Cc1sc(NC(=O)c2cncnc2)nc1-c1ccc2OCC(=O)Nc2c1

$$$$

  CDD

  0  0  0  0  0  0            999 V2000
M  END
> <Molecule Name>
CVD-0010291

> <SMILES>
Cn1ccnc1C(NC(=O)c1cncnc1)c1ccc(F)cc1F

$$$$

  CDD

  0  0  0  0  0  0            999 V2000
M  END
> <Molecule Name>
CVD-0010290

> <SMILES>
O=C(CNC(=O)c1cncnc1)Nc1ccc2c[nH]nc2c1

$$$$

  CDD

  0  0  0  0  0  0            999 V2000
M  END
> <Molecule Name>
CVD-0010289

> <SMILES>
Cc1nc2c(ncn2c(C)c1CCC(O)=O)C(=O)NC(=O)c1cncnc1

$$$$

  CDD

  0  0  0  0  0  0            999 V2000
M  END
> <Molecule Name>
CVD-0010288

> <SMILES>
COc1ccc(cc1OC)C(CC(O)=O)NC(=O)c1cncnc1

$$$$

  CDD

  0  0  0  0  0  0            999 V2000
M  END
> <Molecule Name>
CVD-0010287

> <SMILES>
Clc1ccc(C(NC(=O)c2cncnc2)C#N)c(Cl)c1

$$$$

  CDD

  0  0  0  0  0  0            999 V2000
M  END
> <Molecule Name>
CVD-0010286

> <SMILES>
CN1C(C(CC1=O)NC(=O)c1cncnc1)c1cccnc1

$$$$

  CDD

  0  0  0  0  0  0            999 V2000
M  END
> <Molecule Name>
CVD-0010285

> <SMILES>
COC(=O)CC(NC(=O)c1cncnc1)c1ccc(F)cc1F

$$$$

  CDD

  0  0  0  0  0  0            999 V2000
M  END
> <Molecule Name>
CVD-0010284

> <SMILES>
CC(CO)(Cn1cnc2ccccc12)NC(=O)c1cncnc1

$$$$

  CDD

  0  0  0  0  0  0            999 V2000
M  END
> <Molecule Name>
CVD-0010283

> <SMILES>
O=C(NC(=O)c1cncnc1)C1CCCN(C1)C(=O)C1CCNCC1

$$$$

  CDD

  0  0  0  0  0  0            999 V2000
M  END
> <Molecule Name>
CVD-0010282

> <SMILES>
O=C(NS(=O)(=O)c1ncccc1C#N)c1cncnc1

$$$$

  CDD

  0  0  0  0  0  0            999 V2000
M  END
> <Molecule Name>
CVD-0010281

> <SMILES>
O=C(Nc1cccc(c1)N1C(=O)CCNC1=O)c1cncnc1

$$$$

  CDD

  0  0  0  0  0  0            999 V2000
M  END
> <Molecule Name>
CVD-0010280

> <SMILES>
OC(=O)c1nc(c2ccccn12)S(=O)(=O)NC(=O)c1cncnc1

$$$$

  CDD

  0  0  0  0  0  0            999 V2000
M  END
> <Molecule Name>
CVD-0010279

> <SMILES>
OC(=O)c1cc(c(Cl)cc1Cl)S(=O)(=O)NC(=O)c1cncnc1

$$$$

  CDD

  0  0  0  0  0  0            999 V2000
M  END
> <Molecule Name>
CVD-0010278

> <SMILES>
O=C(NS(=O)(=O)c1cncc(c1)C#N)c1cncnc1

$$$$

  CDD

  0  0  0  0  0  0            999 V2000
M  END
> <Molecule Name>
CVD-0010277

> <SMILES>
O=C(Nc1cc(ccc1NCC1CCCO1)S(=O)(=O)N1CCOCC1)c1cncnc1

$$$$

  CDD

  0  0  0  0  0  0            999 V2000
M  END
> <Molecule Name>
CVD-0010276

> <SMILES>
O=C(NCc1cc(on1)-c1ccc2OCCOc2c1)c1cncnc1

$$$$

  CDD

  0  0  0  0  0  0            999 V2000
M  END
> <Molecule Name>
CVD-0010275

> <SMILES>
OC(=O)C(NC(=O)c1cncnc1)c1ccc(F)c(Cl)c1F

$$$$

  CDD

  0  0  0  0  0  0            999 V2000
M  END
> <Molecule Name>
CVD-0010274

> <SMILES>
Cn1ccnc1C(NC(=O)c1cncnc1)c1ccc(F)c(F)c1

$$$$

  CDD

  0  0  0  0  0  0            999 V2000
M  END
> <Molecule Name>
CVD-0010273

> <SMILES>
Fc1cccc(NC(=O)c2cncnc2)c1-c1nc[nH]n1

$$$$

  CDD

  0  0  0  0  0  0            999 V2000
M  END
> <Molecule Name>
CVD-0010272

> <SMILES>
OCCC(NC(=O)c1cncnc1)c1ccc(F)cc1F

$$$$

  CDD

  0  0  0  0  0  0            999 V2000
M  END
> <Molecule Name>
CVD-0010271

> <SMILES>
COc1ccc(Cn2nccc2NC(=O)c2cncnc2)c(OC)c1OC

$$$$

  CDD

  0  0  0  0  0  0            999 V2000
M  END
> <Molecule Name>
CVD-0010270

> <SMILES>
Fc1cc(CNC(=O)c2cncnc2)ccc1N1CCNC(=O)C1

$$$$

  CDD

  0  0  0  0  0  0            999 V2000
M  END
> <Molecule Name>
CVD-0010269

> <SMILES>
CC(=O)NCc1ccc(s1)-c1nc(NC(=O)c2cncnc2)sc1C

$$$$

  CDD

  0  0  0  0  0  0            999 V2000
M  END
> <Molecule Name>
CVD-0010268

> <SMILES>
CCc1nnc(o1)C(NC(=O)c1cncnc1)C1CCCOC1

$$$$

  CDD

  0  0  0  0  0  0            999 V2000
M  END
> <Molecule Name>
CVD-0010267

> <SMILES>
Cc1c(Cl)cccc1NC(=O)CNC(=O)c1cncnc1

$$$$

  CDD

  0  0  0  0  0  0            999 V2000
M  END
> <Molecule Name>
CVD-0010266

> <SMILES>
COc1cccc(c1F)C1(CCOCC1)NC(=O)c1cncnc1

$$$$

  CDD

  0  0  0  0  0  0            999 V2000
M  END
> <Molecule Name>
CVD-0010265

> <SMILES>
Cc1nc(no1)C(NC(=O)c1cncnc1)c1ccc(Cl)c(F)c1

$$$$

  CDD

  0  0  0  0  0  0            999 V2000
M  END
> <Molecule Name>
CVD-0010264

> <SMILES>
Clc1nc2ccc(Br)cn2c1S(=O)(=O)NC(=O)c1cncnc1

$$$$

  CDD

  0  0  0  0  0  0            999 V2000
M  END
> <Molecule Name>
CVD-0010263

> <SMILES>
CCN(CC)S(=O)(=O)c1ccc(CNC(=O)c2cncnc2)s1

$$$$

  CDD

  0  0  0  0  0  0            999 V2000
M  END
> <Molecule Name>
CVD-0010262

> <SMILES>
Cc1nc2ccccc2n(CCCNC(=O)c2cncnc2)c1=O

$$$$

  CDD

  0  0  0  0  0  0            999 V2000
M  END
> <Molecule Name>
CVD-0010261

> <SMILES>
COC(=O)C(Cc1c[nH]c2cccc(F)c12)NC(=O)c1cncnc1

$$$$

  CDD

  0  0  0  0  0  0            999 V2000
M  END
> <Molecule Name>
CVD-0010260

> <SMILES>
Cc1nc(no1)C(NC(=O)c1cncnc1)c1ccc2OCCOc2c1

$$$$

  CDD

  0  0  0  0  0  0            999 V2000
M  END
> <Molecule Name>
CVD-0010259

> <SMILES>
OC(=O)c1c(F)ccc(c1F)S(=O)(=O)NC(=O)c1cncnc1

$$$$

  CDD

  0  0  0  0  0  0            999 V2000
M  END
> <Molecule Name>
CVD-0010258

> <SMILES>
CC(NC(=O)c1cncnc1)c1ccc2OCC(=O)Nc2c1

$$$$

  CDD

  0  0  0  0  0  0            999 V2000
M  END
> <Molecule Name>
CVD-0010257

> <SMILES>
Cc1nc2c(cnn2c(C)c1CCC(O)=O)C(=O)NC(=O)c1cncnc1

$$$$

  CDD

  0  0  0  0  0  0            999 V2000
M  END
> <Molecule Name>
CVD-0010256

> <SMILES>
O=C(NCc1ccc(s1)S(=O)(=O)N1CCOCC1)c1cncnc1

$$$$

  CDD

  0  0  0  0  0  0            999 V2000
M  END
> <Molecule Name>
CVD-0010255

> <SMILES>
O=C(Nc1nc2cc(ccc2o1)S(=O)(=O)N1CCOCC1)c1cncnc1

$$$$

  CDD

  0  0  0  0  0  0            999 V2000
M  END
> <Molecule Name>
CVD-0010254

> <SMILES>
OC(=O)c1cc(cc(Cl)c1F)S(=O)(=O)NC(=O)c1cncnc1

$$$$

  CDD

  0  0  0  0  0  0            999 V2000
M  END
> <Molecule Name>
CVD-0010253

> <SMILES>
O=C(NCc1ccc2C(=O)N(Cc2c1)C1CCC(=O)NC1=O)c1cncnc1

$$$$

  CDD

  0  0  0  0  0  0            999 V2000
M  END
> <Molecule Name>
CVD-0010252

> <SMILES>
COc1ccc(cc1Cn1cccn1)C(C)NC(=O)c1cncnc1

$$$$

  CDD

  0  0  0  0  0  0            999 V2000
M  END
> <Molecule Name>
CVD-0010251

> <SMILES>
COC(=O)C(C)NC(=O)c1ccc(F)cc1NC(=O)c1cncnc1

$$$$

  CDD

  0  0  0  0  0  0            999 V2000
M  END
> <Molecule Name>
CVD-0010250

> <SMILES>
O=C(CCN1CCOCC1)Nc1cccc(CNC(=O)c2cncnc2)c1

$$$$

  CDD

  0  0  0  0  0  0            999 V2000
M  END
> <Molecule Name>
CVD-0010249

> <SMILES>
COc1cccc(Cn2nccc2NC(=O)c2cncnc2)c1OC

$$$$

  CDD

  0  0  0  0  0  0            999 V2000
M  END
> <Molecule Name>
CVD-0010248

> <SMILES>
COc1ccc(NS(=O)(=O)c2ccc(NC(=O)c3cncnc3)cc2)c(OC)c1

$$$$

  CDD

  0  0  0  0  0  0            999 V2000
M  END
> <Molecule Name>
CVD-0010247

> <SMILES>
CNC(=O)c1ccc2nc([nH]c(=O)c2c1)C(C)NC(=O)c1cncnc1

$$$$

  CDD

  0  0  0  0  0  0            999 V2000
M  END
> <Molecule Name>
CVD-0010246

> <SMILES>
O=C(NCC1(CCOCC1)c1n[nH]c(n1)C1CC1)c1cncnc1

$$$$

  CDD

  0  0  0  0  0  0            999 V2000
M  END
> <Molecule Name>
CVD-0010245

> <SMILES>
O=C(NCC1CCCN(C1)c1nccn2cnnc12)c1cncnc1

$$$$

  CDD

  0  0  0  0  0  0            999 V2000
M  END
> <Molecule Name>
CVD-0010244

> <SMILES>
COc1cccc(c1)C(CNC(=O)c1cncnc1)N1CCCC1

$$$$

  CDD

  0  0  0  0  0  0            999 V2000
M  END
> <Molecule Name>
CVD-0010243

> <SMILES>
O=C(NCc1ccc2CN(C3CCC(=O)NC3=O)C(=O)c2c1)c1cncnc1

$$$$

  CDD

  0  0  0  0  0  0            999 V2000
M  END
> <Molecule Name>
CVD-0010242

> <SMILES>
OC(=O)c1cc(cc(Cl)c1Cl)S(=O)(=O)NC(=O)c1cncnc1

$$$$

  CDD

  0  0  0  0  0  0            999 V2000
M  END
> <Molecule Name>
CVD-0010241

> <SMILES>
CN1C(C(CC1=O)NC(=O)c1cncnc1)c1ccc(F)c(F)c1

$$$$

  CDD

  0  0  0  0  0  0            999 V2000
M  END
> <Molecule Name>
CVD-0010240

> <SMILES>
OC(=O)Cn1c2ccc(cc2oc1=O)S(=O)(=O)NC(=O)c1cncnc1

$$$$

  CDD

  0  0  0  0  0  0            999 V2000
M  END
> <Molecule Name>
CVD-0010239

> <SMILES>
Cc1c(CC(NC(=O)c2cncnc2)C(O)=O)cnn1C

$$$$

  CDD

  0  0  0  0  0  0            999 V2000
M  END
> <Molecule Name>
CVD-0010238

> <SMILES>
O=C(NC1CCOC2(CCS(=O)(=O)CC2)C1)c1cncnc1

$$$$

  CDD

  0  0  0  0  0  0            999 V2000
M  END
> <Molecule Name>
CVD-0010237

> <SMILES>
O=C(NS(=O)(=O)c1cnc2CNCCn12)c1cncnc1

$$$$

  CDD

  0  0  0  0  0  0            999 V2000
M  END
> <Molecule Name>
CVD-0010236

> <SMILES>
COc1ccc2nnc(CNC(=O)c3cncnc3)n2n1

$$$$

  CDD

  0  0  0  0  0  0            999 V2000
M  END
> <Molecule Name>
CVD-0010235

> <SMILES>
COCCN(C)CCN1CC(CC1=O)NC(=O)c1cncnc1

$$$$

  CDD

  0  0  0  0  0  0            999 V2000
M  END
> <Molecule Name>
CVD-0010234

> <SMILES>
Fc1ccc2onc(CNC(=O)c3cncnc3)c2c1

$$$$

  CDD

  0  0  0  0  0  0            999 V2000
M  END
> <Molecule Name>
CVD-0010233

> <SMILES>
NC(=O)C1CNCC1C(=O)NC(=O)c1cncnc1

$$$$

  CDD

  0  0  0  0  0  0            999 V2000
M  END
> <Molecule Name>
CVD-0010232

> <SMILES>
OC(=O)c1c(CNC(=O)c2cncnc2)nn2CCCc12

$$$$

  CDD

  0  0  0  0  0  0            999 V2000
M  END
> <Molecule Name>
CVD-0010231

> <SMILES>
Cn1nc(Br)c2c(NCCNC(=O)c3cncnc3)ncnc12

$$$$

  CDD

  0  0  0  0  0  0            999 V2000
M  END
> <Molecule Name>
CVD-0010230

> <SMILES>
Fc1ccc2occ(CNC(=O)c3cncnc3)c2c1

$$$$

  CDD

  0  0  0  0  0  0            999 V2000
M  END
> <Molecule Name>
CVD-0010229

> <SMILES>
O=C(NS(=O)(=O)c1cnn2CCCOc12)c1cncnc1

$$$$

  CDD

  0  0  0  0  0  0            999 V2000
M  END
> <Molecule Name>
CVD-0010228

> <SMILES>
CC(C)(O)c1coc(c1)S(=O)(=O)NC(=O)c1cncnc1

$$$$

  CDD

  0  0  0  0  0  0            999 V2000
M  END
> <Molecule Name>
CVD-0010227

> <SMILES>
CC(NC(=O)c1cncnc1)c1cc(Cl)cc2CCOc12

$$$$

  CDD

  0  0  0  0  0  0            999 V2000
M  END
> <Molecule Name>
CVD-0010226

> <SMILES>
CCc1nnc(NC(=O)C(C)C(C)NC(=O)c2cncnc2)s1

$$$$

  CDD

  0  0  0  0  0  0            999 V2000
M  END
> <Molecule Name>
CVD-0010225

> <SMILES>
COc1cncc(c1)C1OCCCC1NC(=O)c1cncnc1

$$$$

  CDD

  0  0  0  0  0  0            999 V2000
M  END
> <Molecule Name>
CVD-0010224

> <SMILES>
O=C(NCCc1nnc2n1ccn(C1CC1)c2=O)c1cncnc1

$$$$

  CDD

  0  0  0  0  0  0            999 V2000
M  END
> <Molecule Name>
CVD-0010223

> <SMILES>
COCCN1C(C(CNC(=O)c2cncnc2)CC1=O)c1cnn(C)c1C

$$$$

  CDD

  0  0  0  0  0  0            999 V2000
M  END
> <Molecule Name>
CVD-0010222

> <SMILES>
O=C(NC1(CCOC1)c1ncccn1)c1cncnc1

$$$$

  CDD

  0  0  0  0  0  0            999 V2000
M  END
> <Molecule Name>
CVD-0010221

> <SMILES>
CN1C(C(CNC(=O)c2cncnc2)CC1=O)c1cnn(C)c1C

$$$$

  CDD

  0  0  0  0  0  0            999 V2000
M  END
> <Molecule Name>
CVD-0010220

> <SMILES>
COC(=O)C1COCCC1NC(=O)c1cncnc1

$$$$

  CDD

  0  0  0  0  0  0            999 V2000
M  END
> <Molecule Name>
CVD-0010219

> <SMILES>
CNC(=O)Cn1cc(NC(=O)c2cncnc2)cn1

$$$$

  CDD

  0  0  0  0  0  0            999 V2000
M  END
> <Molecule Name>
CVD-0010218

> <SMILES>
OC(=O)C(COC1CCOCC1)NC(=O)c1cncnc1

$$$$

  CDD

  0  0  0  0  0  0            999 V2000
M  END
> <Molecule Name>
CVD-0010217

> <SMILES>
Cc1cc(COC2CCC(CC2)NC(=O)c2cncnc2)on1

$$$$

  CDD

  0  0  0  0  0  0            999 V2000
M  END
> <Molecule Name>
CVD-0010216

> <SMILES>
COC(=O)C(NC(=O)CNC(=O)c1cncnc1)C(C)C

$$$$

  CDD

  0  0  0  0  0  0            999 V2000
M  END
> <Molecule Name>
CVD-0010215

> <SMILES>
COc1cc(NCCNC(=O)c2cncnc2)cc(OC)c1

$$$$

  CDD

  0  0  0  0  0  0            999 V2000
M  END
> <Molecule Name>
CVD-0010214

> <SMILES>
Cc1nc(CCNC(=O)c2cncnc2)sc1C(O)=O

$$$$

  CDD

  0  0  0  0  0  0            999 V2000
M  END
> <Molecule Name>
CVD-0010213

> <SMILES>
CS(=O)(=O)c1ccnc(NC(=O)c2cncnc2)c1

$$$$

  CDD

  0  0  0  0  0  0            999 V2000
M  END
> <Molecule Name>
CVD-0010212

> <SMILES>
CN(C)c1cnc(NC2CCNCC2C(=O)NC(=O)c2cncnc2)cn1

$$$$

  CDD

  0  0  0  0  0  0            999 V2000
M  END
> <Molecule Name>
CVD-0010211

> <SMILES>
CC(=O)NC(CCC(=O)NC(=O)c1cncnc1)C(O)=O

$$$$

  CDD

  0  0  0  0  0  0            999 V2000
M  END
> <Molecule Name>
CVD-0010210

> <SMILES>
COC(=O)C(CC1OCCO1)NC(=O)c1cncnc1

$$$$

  CDD

  0  0  0  0  0  0            999 V2000
M  END
> <Molecule Name>
CVD-0010209

> <SMILES>
OC(=O)CC(NC(=O)c1cncnc1)c1ccncc1

$$$$

  CDD

  0  0  0  0  0  0            999 V2000
M  END
> <Molecule Name>
CVD-0010208

> <SMILES>
CC(C)c1cc(O)nc(n1)N1CCC(C1)NC(=O)c1cncnc1

$$$$

  CDD

  0  0  0  0  0  0            999 V2000
M  END
> <Molecule Name>
CVD-0010207

> <SMILES>
Cc1sc(CNC(=O)c2cncnc2)nc1C(O)=O

$$$$

  CDD

  0  0  0  0  0  0            999 V2000
M  END
> <Molecule Name>
CVD-0010206

> <SMILES>
COCC1CCC(O1)c1noc(CNC(=O)c2cncnc2)n1

$$$$

  CDD

  0  0  0  0  0  0            999 V2000
M  END
> <Molecule Name>
CVD-0010205

> <SMILES>
Cc1cc(on1)C1(CCOCC1)NC(=O)c1cncnc1

$$$$

  CDD

  0  0  0  0  0  0            999 V2000
M  END
> <Molecule Name>
CVD-0010204

> <SMILES>
COCC(=O)N1CCC(CC1)NC(=O)c1cncnc1

$$$$

  CDD

  0  0  0  0  0  0            999 V2000
M  END
> <Molecule Name>
CVD-0010203

> <SMILES>
Cn1ccn2c(CNC(=O)c3cncnc3)nnc2c1=O

$$$$

  CDD

  0  0  0  0  0  0            999 V2000
M  END
> <Molecule Name>
CVD-0010202

> <SMILES>
OC(=O)c1cc(c[nH]1)S(=O)(=O)NC(=O)c1cncnc1

$$$$

  CDD

  0  0  0  0  0  0            999 V2000
M  END
> <Molecule Name>
CVD-0010201

> <SMILES>
CN1CCOC(CNC(=O)c2cncnc2)C1c1ccnn1C

$$$$

  CDD

  0  0  0  0  0  0            999 V2000
M  END
> <Molecule Name>
CVD-0010200

> <SMILES>
Cn1ccn2ncc(CNC(=O)c3cncnc3)c2c1=O

$$$$

  CDD

  0  0  0  0  0  0            999 V2000
M  END
> <Molecule Name>
CVD-0010199

> <SMILES>
Cn1cc(cn1)C1CNCCC1C(=O)NC(=O)c1cncnc1

$$$$

  CDD

  0  0  0  0  0  0            999 V2000
M  END
> <Molecule Name>
CVD-0010198

> <SMILES>
COc1ccc(NC(C)=O)cc1S(=O)(=O)NC(=O)c1cncnc1

$$$$

  CDD

  0  0  0  0  0  0            999 V2000
M  END
> <Molecule Name>
CVD-0010197

> <SMILES>
Oc1c(Cl)cc(Cl)cc1CNC(=O)c1cncnc1

$$$$

  CDD

  0  0  0  0  0  0            999 V2000
M  END
> <Molecule Name>
CVD-0010196

> <SMILES>
COC(=O)C(CNC(=O)c1cncnc1)C1CCOC1

$$$$

  CDD

  0  0  0  0  0  0            999 V2000
M  END
> <Molecule Name>
CVD-0010195

> <SMILES>
COC(=O)CC1(CCOC1)NC(=O)c1cncnc1

$$$$

  CDD

  0  0  0  0  0  0            999 V2000
M  END
> <Molecule Name>
CVD-0010194

> <SMILES>
O=C(CNC(=O)c1cncnc1)NCc1ccncc1

$$$$

  CDD

  0  0  0  0  0  0            999 V2000
M  END
> <Molecule Name>
CVD-0010193

> <SMILES>
Fc1cncc(c1)C1OCCCC1NC(=O)c1cncnc1

$$$$

  CDD

  0  0  0  0  0  0            999 V2000
M  END
> <Molecule Name>
CVD-0010192

> <SMILES>
OC(=O)CCC(CN1CCOCC1)NC(=O)c1cncnc1

$$$$

  CDD

  0  0  0  0  0  0            999 V2000
M  END
> <Molecule Name>
CVD-0010191

> <SMILES>
Fc1cc2[nH]cc(CCNC(=O)c3cncnc3)c2cc1Cl

$$$$

  CDD

  0  0  0  0  0  0            999 V2000
M  END
> <Molecule Name>
CVD-0010190

> <SMILES>
Clc1ccc(NC(=O)CCCNC(=O)c2cncnc2)cc1

$$$$

  CDD

  0  0  0  0  0  0            999 V2000
M  END
> <Molecule Name>
CVD-0010189

> <SMILES>
COCCN1C(C(CNC(=O)c2cncnc2)CC1=O)c1cnn(C)c1

$$$$

  CDD

  0  0  0  0  0  0            999 V2000
M  END
> <Molecule Name>
CVD-0010188

> <SMILES>
O=C(NCC1CN(C2CC2)C(=O)O1)c1cncnc1

$$$$

  CDD

  0  0  0  0  0  0            999 V2000
M  END
> <Molecule Name>
CVD-0010187

> <SMILES>
O=C(NCCN1CCS(=O)(=O)CC1)c1cncnc1

$$$$

  CDD

  0  0  0  0  0  0            999 V2000
M  END
> <Molecule Name>
CVD-0010186

> <SMILES>
COC(=O)CC(NC(=O)c1cncnc1)c1ccnc(Cl)c1

$$$$

  CDD

  0  0  0  0  0  0            999 V2000
M  END
> <Molecule Name>
CVD-0010185

> <SMILES>
OC(=O)c1cc(Cl)sc1S(=O)(=O)NC(=O)c1cncnc1

$$$$

  CDD

  0  0  0  0  0  0            999 V2000
M  END
> <Molecule Name>
CVD-0010184

> <SMILES>
Brc1cnn(c1)C1COCC1NC(=O)c1cncnc1

$$$$

  CDD

  0  0  0  0  0  0            999 V2000
M  END
> <Molecule Name>
CVD-0010183

> <SMILES>
Clc1cc(Cl)cc(c1)C(NC(=O)c1cncnc1)C#N

$$$$

  CDD

  0  0  0  0  0  0            999 V2000
M  END
> <Molecule Name>
CVD-0010182

> <SMILES>
CCn1ncc2c(NC3CCOCC3)c(CNC(=O)c3cncnc3)c(C)nc12

$$$$

  CDD

  0  0  0  0  0  0            999 V2000
M  END
> <Molecule Name>
CVD-0010181

> <SMILES>
COC(=O)C1(CCS(=O)(=O)CC1)NC(=O)c1cncnc1

$$$$

  CDD

  0  0  0  0  0  0            999 V2000
M  END
> <Molecule Name>
CVD-0010180

> <SMILES>
CC1OCC2(CCC(CNC(=O)c3cncnc3)O2)C1C

$$$$

  CDD

  0  0  0  0  0  0            999 V2000
M  END
> <Molecule Name>
CVD-0010179

> <SMILES>
Cc1cc(=O)[nH]c(n1)C(C)(C)NC(=O)c1cncnc1

$$$$

  CDD

  0  0  0  0  0  0            999 V2000
M  END
> <Molecule Name>
CVD-0010178

> <SMILES>
COCc1nc2cc(NC(=O)c3cncnc3)ccc2o1

$$$$

  CDD

  0  0  0  0  0  0            999 V2000
M  END
> <Molecule Name>
CVD-0010177

> <SMILES>
CN1C(C(CNC(=O)c2cncnc2)OCC1=O)c1cncn1C

$$$$

  CDD

  0  0  0  0  0  0            999 V2000
M  END
> <Molecule Name>
CVD-0010176

> <SMILES>
O=C(NCC1CC2(CCO1)NC(=O)NC2=O)c1cncnc1

$$$$

  CDD

  0  0  0  0  0  0            999 V2000
M  END
> <Molecule Name>
CVD-0010175

> <SMILES>
O=C(NCc1cn(C2CC2)c(=O)[nH]c1=O)c1cncnc1

$$$$

  CDD

  0  0  0  0  0  0            999 V2000
M  END
> <Molecule Name>
CVD-0010174

> <SMILES>
COC(=O)C(CC1CCCO1)NC(=O)c1cncnc1

$$$$

  CDD

  0  0  0  0  0  0            999 V2000
M  END
> <Molecule Name>
CVD-0010173

> <SMILES>
Fc1cc(Cl)ccc1N1CCC(NC(=O)c2cncnc2)C1=O

$$$$

  CDD

  0  0  0  0  0  0            999 V2000
M  END
> <Molecule Name>
CVD-0010172

> <SMILES>
COC1CNC(Cn2cc(nn2)C(=O)NC(=O)c2cncnc2)C1

$$$$

  CDD

  0  0  0  0  0  0            999 V2000
M  END
> <Molecule Name>
CVD-0010171

> <SMILES>
Cn1cc(cn1)C(NC(=O)c1cncnc1)c1ncon1

$$$$

  CDD

  0  0  0  0  0  0            999 V2000
M  END
> <Molecule Name>
CVD-0010170

> <SMILES>
Cn1nccc1C(NC(=O)c1cncnc1)C(O)=O

$$$$

  CDD

  0  0  0  0  0  0            999 V2000
M  END
> <Molecule Name>
CVD-0010169

> <SMILES>
Cc1nc(CCCNC(=O)c2cncnc2)sc1C(O)=O

$$$$

  CDD

  0  0  0  0  0  0            999 V2000
M  END
> <Molecule Name>
CVD-0010168

> <SMILES>
CN1CC(NC(=O)c2cncnc2)C(C1)c1cn(C)cn1

$$$$

  CDD

  0  0  0  0  0  0            999 V2000
M  END
> <Molecule Name>
CVD-0010167

> <SMILES>
OC(=O)Cc1nnc(NC(=O)c2cncnc2)s1

$$$$

  CDD

  0  0  0  0  0  0            999 V2000
M  END
> <Molecule Name>
CVD-0010166

> <SMILES>
CN1C(=O)N(CCCNC(=O)c2cncnc2)C(=O)C1=O

$$$$

  CDD

  0  0  0  0  0  0            999 V2000
M  END
> <Molecule Name>
CVD-0010165

> <SMILES>
OC1CCCN(C1)c1cc(CNC(=O)c2cncnc2)ccn1

$$$$

  CDD

  0  0  0  0  0  0            999 V2000
M  END
> <Molecule Name>
CVD-0010164

> <SMILES>
OC1CCCN(C1)c1ccnc(NC(=O)c2cncnc2)n1

$$$$

  CDD

  0  0  0  0  0  0            999 V2000
M  END
> <Molecule Name>
CVD-0010163

> <SMILES>
OC(=O)Cc1csc(CNC(=O)c2cncnc2)n1

$$$$

  CDD

  0  0  0  0  0  0            999 V2000
M  END
> <Molecule Name>
CVD-0010162

> <SMILES>
OC(=O)C1CN(CCNC(=O)c2cncnc2)C(=O)C1

$$$$

  CDD

  0  0  0  0  0  0            999 V2000
M  END
> <Molecule Name>
CVD-0010161

> <SMILES>
O=C(NC1CCCN(CCc2nnc[nH]2)C1=O)c1cncnc1

$$$$

  CDD

  0  0  0  0  0  0            999 V2000
M  END
> <Molecule Name>
CVD-0010160

> <SMILES>
OC(=O)C(Cc1ccc(Cl)cn1)NC(=O)c1cncnc1

$$$$

  CDD

  0  0  0  0  0  0            999 V2000
M  END
> <Molecule Name>
CVD-0010159

> <SMILES>
O=C(NC(=O)c1cncnc1)c1cnn(CCC#N)c1

$$$$

  CDD

  0  0  0  0  0  0            999 V2000
M  END
> <Molecule Name>
CVD-0010158

> <SMILES>
Fc1ccc2[nH]cnc2c1CNC(=O)c1cncnc1

$$$$

  CDD

  0  0  0  0  0  0            999 V2000
M  END
> <Molecule Name>
CVD-0010157

> <SMILES>
Cc1nn(C)c2CNCC(C(=O)NC(=O)c3cncnc3)c12

$$$$

  CDD

  0  0  0  0  0  0            999 V2000
M  END
> <Molecule Name>
CVD-0010156

> <SMILES>
COC(=O)Cn1cc(CNC(=O)c2cncnc2)nn1

$$$$

  CDD

  0  0  0  0  0  0            999 V2000
M  END
> <Molecule Name>
CVD-0010155

> <SMILES>
CC(C)(C)c1nc(no1)C(C)(C)NC(=O)c1cncnc1

$$$$

  CDD

  0  0  0  0  0  0            999 V2000
M  END
> <Molecule Name>
CVD-0010154

> <SMILES>
COc1ccc(OC)c(c1)C(O)CNC(=O)c1cncnc1

$$$$

  CDD

  0  0  0  0  0  0            999 V2000
M  END
> <Molecule Name>
CVD-0010153

> <SMILES>
CCOC(=O)CC(NC(=O)c1cncnc1)c1cc(Cl)cc(Cl)c1

$$$$

  CDD

  0  0  0  0  0  0            999 V2000
M  END
> <Molecule Name>
CVD-0010152

> <SMILES>
CC(C)n1cc(CNC(=O)c2cncnc2)c(=O)[nH]c1=O

$$$$

  CDD

  0  0  0  0  0  0            999 V2000
M  END
> <Molecule Name>
CVD-0010151

> <SMILES>
Cc1nc(cs1)C(C)(CC(O)=O)NC(=O)c1cncnc1

$$$$

  CDD

  0  0  0  0  0  0            999 V2000
M  END
> <Molecule Name>
CVD-0010150

> <SMILES>
Cn1nccc1C1OCCC1CNC(=O)c1cncnc1

$$$$

  CDD

  0  0  0  0  0  0            999 V2000
M  END
> <Molecule Name>
CVD-0010149

> <SMILES>
COC(=O)CC(C)(NC(=O)c1cncnc1)c1ccncc1

$$$$

  CDD

  0  0  0  0  0  0            999 V2000
M  END
> <Molecule Name>
CVD-0010148

> <SMILES>
OC(=O)C1Cc2nnc(CNC(=O)c3cncnc3)n2C1

$$$$

  CDD

  0  0  0  0  0  0            999 V2000
M  END
> <Molecule Name>
CVD-0010147

> <SMILES>
CC1(C)N(CC(=O)NC(=O)c2cncnc2)C(=O)NC1=O

$$$$

  CDD

  0  0  0  0  0  0            999 V2000
M  END
> <Molecule Name>
CVD-0010146

> <SMILES>
O=C(NCc1nc2CCOCc2c(=O)[nH]1)c1cncnc1

$$$$

  CDD

  0  0  0  0  0  0            999 V2000
M  END
> <Molecule Name>
CVD-0010145

> <SMILES>
CN1CCn2ncc(CNC(=O)c3cncnc3)c2C1=O

$$$$

  CDD

  0  0  0  0  0  0            999 V2000
M  END
> <Molecule Name>
CVD-0010144

> <SMILES>
CCN1CCOC(CNC(=O)c2cncnc2)C1c1ccnn1C

$$$$

  CDD

  0  0  0  0  0  0            999 V2000
M  END
> <Molecule Name>
CVD-0010143

> <SMILES>
CCN1CCOC(CNC(=O)c2cncnc2)C1c1cncn1C

$$$$

  CDD

  0  0  0  0  0  0            999 V2000
M  END
> <Molecule Name>
CVD-0010142

> <SMILES>
O=C(NCC1CCC(O1)c1nc[nH]n1)c1cncnc1

$$$$

  CDD

  0  0  0  0  0  0            999 V2000
M  END
> <Molecule Name>
CVD-0010141

> <SMILES>
COC(=O)CC1(CCCOC1)NC(=O)c1cncnc1

$$$$

  CDD

  0  0  0  0  0  0            999 V2000
M  END
> <Molecule Name>
CVD-0010140

> <SMILES>
COc1cc(Cl)cc(NC(=O)Cn2nnc3ccccc23)c1

$$$$

  CDD

  0  0  0  0  0  0            999 V2000
M  END
> <Molecule Name>
CVD-0010139

> <SMILES>
CNc1ccc(cc1)N(C(=O)Nn1cnc2ccccc12)c1cccc(Cl)c1

$$$$

  CDD

  0  0  0  0  0  0            999 V2000
M  END
> <Molecule Name>
CVD-0010138

> <SMILES>
CNc1ccc(cc1)N(C(=O)Nn1cnc2ccccc2c1=O)c1cccc(Cl)c1

$$$$

  CDD

  0  0  0  0  0  0            999 V2000
M  END
> <Molecule Name>
CVD-0010137

> <SMILES>
CNc1ccc(cc1)N(C(=O)Cn1nnc2ccccc12)c1cc(Cl)cc(OC)c1

$$$$

  CDD

  0  0  0  0  0  0            999 V2000
M  END
> <Molecule Name>
CVD-0010136

> <SMILES>
CNc1ccc(cc1)N(C(=O)Cn1nnc2ccccc12)c1cccc(Cl)c1

$$$$

  CDD

  0  0  0  0  0  0            999 V2000
M  END
> <Molecule Name>
CVD-0010135

> <SMILES>
CCC(=O)Nc1ccc(cc1)N(C(=O)Cn1nnc2ccccc12)c1cc(Cl)cc(OC)c1

$$$$

  CDD

  0  0  0  0  0  0            999 V2000
M  END
> <Molecule Name>
CVD-0010134

> <SMILES>
CCC(=O)Nc1ccc(cc1)N(C(=O)Cn1nnc2ccccc12)c1cccc(Cl)c1

$$$$

  CDD

  0  0  0  0  0  0            999 V2000
M  END
> <Molecule Name>
CVD-0010133

> <SMILES>
COc1cc(Cl)cc(c1)N(C(=O)Cn1nnc2ccccc12)c1ccc(cc1)N(C)C

$$$$

  CDD

  0  0  0  0  0  0            999 V2000
M  END
> <Molecule Name>
CVD-0010132

> <SMILES>
CN(C)c1ccc(cc1)N(C(=O)Cn1nnc2ccccc12)c1cccc(Cl)c1

$$$$

  CDD

  0  0  0  0  0  0            999 V2000
M  END
> <Molecule Name>
CVD-0010131

> <SMILES>
COc1cc(Cl)cc(c1)N(CCC1CCCCC1)C(=O)Nc1cnccc1C

$$$$

  CDD

  0  0  0  0  0  0            999 V2000
M  END
> <Molecule Name>
CVD-0010130

> <SMILES>
Cc1ccncc1NC(=O)N(CCC1CCCCC1)c1cccc(Cl)c1

$$$$

  CDD

  0  0  0  0  0  0            999 V2000
M  END
> <Molecule Name>
CVD-0010129

> <SMILES>
COc1ccc(Cc2cnnn2-c2cc(OC)c(OC)c(OC)c2)cc1

$$$$

  CDD

  0  0  0  0  0  0            999 V2000
M  END
> <Molecule Name>
CVD-0010128

> <SMILES>
CCN1C(C(CNC(=O)c2cncnc2)OCC1=O)c1nccn1C

$$$$

  CDD

  0  0  0  0  0  0            999 V2000
M  END
> <Molecule Name>
CVD-0010127

> <SMILES>
CC(=O)N1CCC(CC1)c1nc(CNC(=O)c2cncnc2)n[nH]1

$$$$

  CDD

  0  0  0  0  0  0            999 V2000
M  END
> <Molecule Name>
CVD-0010126

> <SMILES>
CC(C)c1nc(C)c(s1)C(=O)CNC(=O)c1cncnc1

$$$$

  CDD

  0  0  0  0  0  0            999 V2000
M  END
> <Molecule Name>
CVD-0010125

> <SMILES>
Cn1nccc1C(NC(=O)c1cncnc1)C(=O)OC(C)(C)C

$$$$

  CDD

  0  0  0  0  0  0            999 V2000
M  END
> <Molecule Name>
CVD-0010124

> <SMILES>
CCn1nccc1C1C(CNC(=O)c2cncnc2)OCC(=O)N1C

$$$$

  CDD

  0  0  0  0  0  0            999 V2000
M  END
> <Molecule Name>
CVD-0010123

> <SMILES>
COc1cc(OC)cc(c1)N1CCC(CNC(=O)c2cncnc2)C1

$$$$

  CDD

  0  0  0  0  0  0            999 V2000
M  END
> <Molecule Name>
CVD-0010122

> <SMILES>
O=C(NC(=S)CN1C(=O)CNC1=O)c1cncnc1

$$$$

  CDD

  0  0  0  0  0  0            999 V2000
M  END
> <Molecule Name>
CVD-0010121

> <SMILES>
OC(=O)C(Cn1ccc(=O)[nH]c1=O)NC(=O)c1cncnc1

$$$$

  CDD

  0  0  0  0  0  0            999 V2000
M  END
> <Molecule Name>
CVD-0010120

> <SMILES>
CN1CCn2c(CNC(=O)c3cncnc3)nnc2C1=O

$$$$

  CDD

  0  0  0  0  0  0            999 V2000
M  END
> <Molecule Name>
CVD-0010119

> <SMILES>
CC(C)(C)c1n[nH]c(n1)C1(CNC(=O)c2cncnc2)CCOCC1

$$$$

  CDD

  0  0  0  0  0  0            999 V2000
M  END
> <Molecule Name>
CVD-0010118

> <SMILES>
Oc1ccc(Cl)c(CNC(=O)c2cncnc2)c1

$$$$

  CDD

  0  0  0  0  0  0            999 V2000
M  END
> <Molecule Name>
CVD-0010117

> <SMILES>
Clc1ccc2nnc(CNC(=O)c3cncnc3)n2c1

$$$$

  CDD

  0  0  0  0  0  0            999 V2000
M  END
> <Molecule Name>
CVD-0010116

> <SMILES>
CC(=O)N1CCC(CC1)S(=O)(=O)NC(=O)c1cncnc1

$$$$

  CDD

  0  0  0  0  0  0            999 V2000
M  END
> <Molecule Name>
CVD-0010115

> <SMILES>
Cn1cc(C2CNCC2C(=O)NC(=O)c2cncnc2)c(=O)n(C)c1=O

$$$$

  CDD

  0  0  0  0  0  0            999 V2000
M  END
> <Molecule Name>
CVD-0010114

> <SMILES>
COc1ccc(F)cc1C(NC(=O)c1cncnc1)C(O)=O

$$$$

  CDD

  0  0  0  0  0  0            999 V2000
M  END
> <Molecule Name>
CVD-0010113

> <SMILES>
OC(=O)Cn1cnc2c1nc(NC(=O)c1cncnc1)[nH]c2=O

$$$$

  CDD

  0  0  0  0  0  0            999 V2000
M  END
> <Molecule Name>
CVD-0010112

> <SMILES>
OC(=O)C(Cc1nccc(O)n1)NC(=O)c1cncnc1

$$$$

  CDD

  0  0  0  0  0  0            999 V2000
M  END
> <Molecule Name>
CVD-0010111

> <SMILES>
COC(=O)Cn1cnc(NC(=O)c2cncnc2)n1

$$$$

  CDD

  0  0  0  0  0  0            999 V2000
M  END
> <Molecule Name>
CVD-0010110

> <SMILES>
Cc1cc(O)n2nc(CNC(=O)c3cncnc3)nc2n1

$$$$

  CDD

  0  0  0  0  0  0            999 V2000
M  END
> <Molecule Name>
CVD-0010109

> <SMILES>
O=C(NCc1nnc([nH]1)C1CCOC1)c1cncnc1

$$$$

  CDD

  0  0  0  0  0  0            999 V2000
M  END
> <Molecule Name>
CVD-0010108

> <SMILES>
CCN1C(C(CNC(=O)c2cncnc2)OCC1=O)c1cncn1C

$$$$

  CDD

  0  0  0  0  0  0            999 V2000
M  END
> <Molecule Name>
CVD-0010107

> <SMILES>
CCc1noc(n1)C1(CCOCC1)NC(=O)c1cncnc1

$$$$

  CDD

  0  0  0  0  0  0            999 V2000
M  END
> <Molecule Name>
CVD-0010106

> <SMILES>
Clc1ccc(Cl)c(c1)C(NC(=O)c1cncnc1)C1CCOC1

$$$$

  CDD

  0  0  0  0  0  0            999 V2000
M  END
> <Molecule Name>
CVD-0010105

> <SMILES>
Cn1cc(cn1)C1C(CNC(=O)c2cncnc2)CC(=O)N1C(C)(C)C

$$$$

  CDD

  0  0  0  0  0  0            999 V2000
M  END
> <Molecule Name>
CVD-0010104

> <SMILES>
O=C(NC1(CCOC1)c1nnn[nH]1)c1cncnc1

$$$$

  CDD

  0  0  0  0  0  0            999 V2000
M  END
> <Molecule Name>
CVD-0010103

> <SMILES>
CCn1ccnc1C1NC(=O)CCC1NC(=O)c1cncnc1

$$$$

  CDD

  0  0  0  0  0  0            999 V2000
M  END
> <Molecule Name>
CVD-0010102

> <SMILES>
OC(=O)C1CCC(O1)C(=O)NC(=O)c1cncnc1

$$$$

  CDD

  0  0  0  0  0  0            999 V2000
M  END
> <Molecule Name>
CVD-0010101

> <SMILES>
COc1ccc2[nH]cc(CCNC(=O)c3cncnc3)c2c1

$$$$

  CDD

  0  0  0  0  0  0            999 V2000
M  END
> <Molecule Name>
CVD-0010100

> <SMILES>
COC1COCC1S(=O)(=O)NC(=O)c1cncnc1

$$$$

  CDD

  0  0  0  0  0  0            999 V2000
M  END
> <Molecule Name>
CVD-0010099

> <SMILES>
O=C(CN1C2CCNCC2NC1=O)NC(=O)c1cncnc1

$$$$

  CDD

  0  0  0  0  0  0            999 V2000
M  END
> <Molecule Name>
CVD-0010098

> <SMILES>
OCCOC1(CNC(=O)c2cncnc2)CCS(=O)(=O)C1

$$$$

  CDD

  0  0  0  0  0  0            999 V2000
M  END
> <Molecule Name>
CVD-0010097

> <SMILES>
OC(=O)CC1COCCC1NC(=O)c1cncnc1

$$$$

  CDD

  0  0  0  0  0  0            999 V2000
M  END
> <Molecule Name>
CVD-0010096

> <SMILES>
CC(NC(=O)c1cncnc1)C(=O)NCc1ccco1

$$$$

  CDD

  0  0  0  0  0  0            999 V2000
M  END
> <Molecule Name>
CVD-0010095

> <SMILES>
Oc1cc(O)c(CNC(=O)c2cncnc2)c(O)c1

$$$$

  CDD

  0  0  0  0  0  0            999 V2000
M  END
> <Molecule Name>
CVD-0010094

> <SMILES>
Cc1csc(n1)C1(CCOCC1)NC(=O)c1cncnc1

$$$$

  CDD

  0  0  0  0  0  0            999 V2000
M  END
> <Molecule Name>
CVD-0010093

> <SMILES>
CC(NC(=O)c1cncnc1)(C(O)=O)c1cc(Cl)cc(Cl)c1

$$$$

  CDD

  0  0  0  0  0  0            999 V2000
M  END
> <Molecule Name>
CVD-0010092

> <SMILES>
COc1ccc(OC)c(c1)C(O)C(C)NC(=O)c1cncnc1

$$$$

  CDD

  0  0  0  0  0  0            999 V2000
M  END
> <Molecule Name>
CVD-0010091

> <SMILES>
Cc1oc(C)c(c1C(O)=O)S(=O)(=O)NC(=O)c1cncnc1

$$$$

  CDD

  0  0  0  0  0  0            999 V2000
M  END
> <Molecule Name>
CVD-0010090

> <SMILES>
COc1cc(OC)c2C(CCOc2c1)NC(=O)c1cncnc1

$$$$

  CDD

  0  0  0  0  0  0            999 V2000
M  END
> <Molecule Name>
CVD-0010089

> <SMILES>
OC(=O)C(Cc1cc(Cl)cnc1Cl)NC(=O)c1cncnc1

$$$$

  CDD

  0  0  0  0  0  0            999 V2000
M  END
> <Molecule Name>
CVD-0010088

> <SMILES>
O=C(NCc1cn(nn1)C1CCOC1)c1cncnc1

$$$$

  CDD

  0  0  0  0  0  0            999 V2000
M  END
> <Molecule Name>
CVD-0010087

> <SMILES>
O=C(NCc1nc(no1)C1CN2CCCC2CO1)c1cncnc1

$$$$

  CDD

  0  0  0  0  0  0            999 V2000
M  END
> <Molecule Name>
CVD-0010086

> <SMILES>
OC(=O)c1ccnc(c1)S(=O)(=O)NC(=O)c1cncnc1

$$$$

  CDD

  0  0  0  0  0  0            999 V2000
M  END
> <Molecule Name>
CVD-0010085

> <SMILES>
OC(CNC(=O)c1cncnc1)c1cc(Cl)c2OCCOc2c1

$$$$

  CDD

  0  0  0  0  0  0            999 V2000
M  END
> <Molecule Name>
CVD-0010084

> <SMILES>
CS(=O)(=O)c1nnc(NC(=O)c2cncnc2)[nH]1

$$$$

  CDD

  0  0  0  0  0  0            999 V2000
M  END
> <Molecule Name>
CVD-0010083

> <SMILES>
CN1CCC(CC1)C(NC(=O)c1cncnc1)c1nnc(C)o1

$$$$

  CDD

  0  0  0  0  0  0            999 V2000
M  END
> <Molecule Name>
CVD-0010082

> <SMILES>
CN(C)S(=O)(=O)NCC1(CNC(=O)c2cncnc2)CCOCC1

$$$$

  CDD

  0  0  0  0  0  0            999 V2000
M  END
> <Molecule Name>
CVD-0010081

> <SMILES>
Cc1n[nH]c(CN2CCC(NC(=O)c3cncnc3)C2=O)n1

$$$$

  CDD

  0  0  0  0  0  0            999 V2000
M  END
> <Molecule Name>
CVD-0010080

> <SMILES>
CCn1cc(OC2COCC2NC(=O)c2cncnc2)cn1

$$$$

  CDD

  0  0  0  0  0  0            999 V2000
M  END
> <Molecule Name>
CVD-0010079

> <SMILES>
Cc1n[nH]c(n1)C1CCC(CNC(=O)c2cncnc2)O1

$$$$

  CDD

  0  0  0  0  0  0            999 V2000
M  END
> <Molecule Name>
CVD-0010078

> <SMILES>
OC(=O)CCn1cc(C(=O)NC(=O)c2cncnc2)c(=O)[nH]c1=O

$$$$

  CDD

  0  0  0  0  0  0            999 V2000
M  END
> <Molecule Name>
CVD-0010077

> <SMILES>
COc1cc(OC)cc(c1)C(O)CNC(=O)c1cncnc1

$$$$

  CDD

  0  0  0  0  0  0            999 V2000
M  END
> <Molecule Name>
CVD-0010076

> <SMILES>
OCCC(NC(=O)c1cncnc1)c1cc(Cl)cc(Cl)c1

$$$$

  CDD

  0  0  0  0  0  0            999 V2000
M  END
> <Molecule Name>
CVD-0010075

> <SMILES>
Cn1nccc1C(NC(=O)c1cncnc1)c1ccnn1C

$$$$

  CDD

  0  0  0  0  0  0            999 V2000
M  END
> <Molecule Name>
CVD-0010074

> <SMILES>
O=C(Nc1cnn(CCN2CCNC2=O)c1)c1cncnc1

$$$$

  CDD

  0  0  0  0  0  0            999 V2000
M  END
> <Molecule Name>
CVD-0010073

> <SMILES>
Cn1cc(cc1CC(O)=O)S(=O)(=O)NC(=O)c1cncnc1

$$$$

  CDD

  0  0  0  0  0  0            999 V2000
M  END
> <Molecule Name>
CVD-0010072

> <SMILES>
O=C(CN1CCNCC1=O)NC(=O)c1cncnc1

$$$$

  CDD

  0  0  0  0  0  0            999 V2000
M  END
> <Molecule Name>
CVD-0010071

> <SMILES>
CC(CNC(=O)c1cncnc1)Cn1ccnc1C

$$$$

  CDD

  0  0  0  0  0  0            999 V2000
M  END
> <Molecule Name>
CVD-0010070

> <SMILES>
CS(=O)(=O)N1CCCC(C1)NC(=O)c1cncnc1

$$$$

  CDD

  0  0  0  0  0  0            999 V2000
M  END
> <Molecule Name>
CVD-0010069

> <SMILES>
O=C(NCCCC1NC(=O)NC1=O)c1cncnc1

$$$$

  CDD

  0  0  0  0  0  0            999 V2000
M  END
> <Molecule Name>
CVD-0010068

> <SMILES>
COc1cc(C)nc(CCNC(=O)c2cncnc2)n1

$$$$

  CDD

  0  0  0  0  0  0            999 V2000
M  END
> <Molecule Name>
CVD-0010067

> <SMILES>
Fc1cc(Cl)cc2c(CCNC(=O)c3cncnc3)c[nH]c12

$$$$

  CDD

  0  0  0  0  0  0            999 V2000
M  END
> <Molecule Name>
CVD-0010066

> <SMILES>
OC1CC(N(C1)C(=O)NC(=O)c1cncnc1)C(O)=O

$$$$

  CDD

  0  0  0  0  0  0            999 V2000
M  END
> <Molecule Name>
CVD-0010065

> <SMILES>
Fc1ccc2[nH]c(CCNC(=O)c3cncnc3)nc2c1

$$$$

  CDD

  0  0  0  0  0  0            999 V2000
M  END
> <Molecule Name>
CVD-0010064

> <SMILES>
COC(=O)Cc1nnc(NC(=O)c2cncnc2)[nH]1

$$$$

  CDD

  0  0  0  0  0  0            999 V2000
M  END
> <Molecule Name>
CVD-0010063

> <SMILES>
Cc1nnc(o1)C(NC(=O)c1cncnc1)C1CCOCC1

$$$$

  CDD

  0  0  0  0  0  0            999 V2000
M  END
> <Molecule Name>
CVD-0010062

> <SMILES>
O=C(NCc1nc(cs1)-c1nn[nH]n1)c1cncnc1

$$$$

  CDD

  0  0  0  0  0  0            999 V2000
M  END
> <Molecule Name>
CVD-0010061

> <SMILES>
COCCN1CCOC(CNC(=O)c2cncnc2)C1c1cnn(C)c1

$$$$

  CDD

  0  0  0  0  0  0            999 V2000
M  END
> <Molecule Name>
CVD-0010060

> <SMILES>
OC(=O)c1cn(CCNC(=O)c2cncnc2)c(=O)[nH]c1=O

$$$$

  CDD

  0  0  0  0  0  0            999 V2000
M  END
> <Molecule Name>
CVD-0010059

> <SMILES>
Cn1ncc(C#N)c1S(=O)(=O)NC(=O)c1cncnc1

$$$$

  CDD

  0  0  0  0  0  0            999 V2000
M  END
> <Molecule Name>
CVD-0010058

> <SMILES>
OC1CC(Cn2ccnc2)CC1NC(=O)c1cncnc1

$$$$

  CDD

  0  0  0  0  0  0            999 V2000
M  END
> <Molecule Name>
CVD-0010057

> <SMILES>
Cc1noc(n1)C(NC(=O)c1cncnc1)C1CCOCC1

$$$$

  CDD

  0  0  0  0  0  0            999 V2000
M  END
> <Molecule Name>
CVD-0010056

> <SMILES>
COC(=O)C(C)(NC(=O)c1cncnc1)c1cc(F)ccc1F

$$$$

  CDD

  0  0  0  0  0  0            999 V2000
M  END
> <Molecule Name>
CVD-0010055

> <SMILES>
O=C(NS(=O)(=O)c1cnn2CCNCc12)c1cncnc1

$$$$

  CDD

  0  0  0  0  0  0            999 V2000
M  END
> <Molecule Name>
CVD-0010054

> <SMILES>
CC(C)C(NC(=O)c1cncnc1)C(=O)N(C)Cc1nnc2CCCn12

$$$$

  CDD

  0  0  0  0  0  0            999 V2000
M  END
> <Molecule Name>
CVD-0010053

> <SMILES>
OC1CN(CC(=O)NC(=O)c2cncnc2)C(=O)C1

$$$$

  CDD

  0  0  0  0  0  0            999 V2000
M  END
> <Molecule Name>
CVD-0010052

> <SMILES>
CCN1C(C(CNC(=O)c2cncnc2)OCC1=O)c1ccnn1C

$$$$

  CDD

  0  0  0  0  0  0            999 V2000
M  END
> <Molecule Name>
CVD-0010051

> <SMILES>
OC(=O)c1cc(ccn1)S(=O)(=O)NC(=O)c1cncnc1

$$$$

  CDD

  0  0  0  0  0  0            999 V2000
M  END
> <Molecule Name>
CVD-0010050

> <SMILES>
O=C(NC1COCC1n1ccnn1)c1cncnc1

$$$$

  CDD

  0  0  0  0  0  0            999 V2000
M  END
> <Molecule Name>
CVD-0010049

> <SMILES>
OC(=O)C(Cc1c[nH]c2nccnc12)NC(=O)c1cncnc1

$$$$

  CDD

  0  0  0  0  0  0            999 V2000
M  END
> <Molecule Name>
CVD-0010048

> <SMILES>
OC(=O)CC1SC(NC(=O)c2cncnc2)=NC1=O

$$$$

  CDD

  0  0  0  0  0  0            999 V2000
M  END
> <Molecule Name>
CVD-0010047

> <SMILES>
O=C(CCNC(=O)c1cncnc1)NC1CCS(=O)(=O)C1

$$$$

  CDD

  0  0  0  0  0  0            999 V2000
M  END
> <Molecule Name>
CVD-0010046

> <SMILES>
OCCn1cc(CNC(=O)c2cncnc2)c(=O)[nH]c1=O

$$$$

  CDD

  0  0  0  0  0  0            999 V2000
M  END
> <Molecule Name>
CVD-0010045

> <SMILES>
CS(=O)(=O)c1cc(CNC(=O)c2cncnc2)ccn1

$$$$

  CDD

  0  0  0  0  0  0            999 V2000
M  END
> <Molecule Name>
CVD-0010044

> <SMILES>
CCC(NC(=O)c1cncnc1)C(=O)N1CCOCC1

$$$$

  CDD

  0  0  0  0  0  0            999 V2000
M  END
> <Molecule Name>
CVD-0010043

> <SMILES>
COCc1ncc(C(O)=O)c(NC(=O)c2cncnc2)n1

$$$$

  CDD

  0  0  0  0  0  0            999 V2000
M  END
> <Molecule Name>
CVD-0010042

> <SMILES>
OC(=O)c1cnn2CCC(CNC(=O)c3cncnc3)Cc12

$$$$

  CDD

  0  0  0  0  0  0            999 V2000
M  END
> <Molecule Name>
CVD-0010041

> <SMILES>
Cn1cc(c(=O)n(C)c1=O)S(=O)(=O)NC(=O)c1cncnc1

$$$$

  CDD

  0  0  0  0  0  0            999 V2000
M  END
> <Molecule Name>
CVD-0010040

> <SMILES>
CC(C)c1nnc(o1)C(NC(=O)c1cncnc1)C1CCOCC1

$$$$

  CDD

  0  0  0  0  0  0            999 V2000
M  END
> <Molecule Name>
CVD-0010039

> <SMILES>
Cc1nnc(O)c(CNC(=O)c2cncnc2)c1C

$$$$

  CDD

  0  0  0  0  0  0            999 V2000
M  END
> <Molecule Name>
CVD-0010038

> <SMILES>
OC(=O)C(Cc1c[nH]c2ccc(O)cc12)NC(=O)c1cncnc1

$$$$

  CDD

  0  0  0  0  0  0            999 V2000
M  END
> <Molecule Name>
CVD-0010037

> <SMILES>
OC(=O)C(Cc1c[nH]c2cccnc12)NC(=O)c1cncnc1

$$$$

  CDD

  0  0  0  0  0  0            999 V2000
M  END
> <Molecule Name>
CVD-0010036

> <SMILES>
Cc1noc(C)c1S(=O)(=O)N1CCC(CC1)NC(=O)c1cncnc1

$$$$

  CDD

  0  0  0  0  0  0            999 V2000
M  END
> <Molecule Name>
CVD-0010035

> <SMILES>
COc1ccc2[nH]cc(C(C)CNC(=O)c3cncnc3)c2c1

$$$$

  CDD

  0  0  0  0  0  0            999 V2000
M  END
> <Molecule Name>
CVD-0010034

> <SMILES>
CC(NC(=O)c1cncnc1)C(=O)Nc1cccnc1C

$$$$

  CDD

  0  0  0  0  0  0            999 V2000
M  END
> <Molecule Name>
CVD-0010033

> <SMILES>
COc1cc(OC)c2cc(CCCNC(=O)c3cncnc3)[nH]c2c1

$$$$

  CDD

  0  0  0  0  0  0            999 V2000
M  END
> <Molecule Name>
CVD-0010032

> <SMILES>
Clc1cc2CCOc2c(c1)S(=O)(=O)NC(=O)c1cncnc1

$$$$

  CDD

  0  0  0  0  0  0            999 V2000
M  END
> <Molecule Name>
CVD-0010031

> <SMILES>
COc1cc(cc(OC)c1OC)C(NC(=O)c1cncnc1)C#N

$$$$

  CDD

  0  0  0  0  0  0            999 V2000
M  END
> <Molecule Name>
CVD-0010030

> <SMILES>
COCc1noc(n1)C1(CCOCC1)NC(=O)c1cncnc1

$$$$

  CDD

  0  0  0  0  0  0            999 V2000
M  END
> <Molecule Name>
CVD-0010029

> <SMILES>
CC(=O)NCc1nc(CNC(=O)c2cncnc2)cs1

$$$$

  CDD

  0  0  0  0  0  0            999 V2000
M  END
> <Molecule Name>
CVD-0010028

> <SMILES>
Clc1cc2OCCOc2cc1S(=O)(=O)NC(=O)c1cncnc1

$$$$

  CDD

  0  0  0  0  0  0            999 V2000
M  END
> <Molecule Name>
CVD-0010027

> <SMILES>
COC1(CNCC(C1)C(=O)NC(=O)c1cncnc1)OC

$$$$

  CDD

  0  0  0  0  0  0            999 V2000
M  END
> <Molecule Name>
CVD-0010026

> <SMILES>
O=C(NS(=O)(=O)NC1CCNCC1)c1cncnc1

$$$$

  CDD

  0  0  0  0  0  0            999 V2000
M  END
> <Molecule Name>
CVD-0010025

> <SMILES>
Cc1nc(no1)C(NC(=O)c1cncnc1)c1cnn(C)c1

$$$$

  CDD

  0  0  0  0  0  0            999 V2000
M  END
> <Molecule Name>
CVD-0010024

> <SMILES>
CC(NC(=O)c1cncnc1)C(=O)N1CCOCC1

$$$$

  CDD

  0  0  0  0  0  0            999 V2000
M  END
> <Molecule Name>
CVD-0010023

> <SMILES>
OC(=O)C(Cn1cnc2cc(F)c(F)cc12)NC(=O)c1cncnc1

$$$$

  CDD

  0  0  0  0  0  0            999 V2000
M  END
> <Molecule Name>
CVD-0010022

> <SMILES>
COC(=O)CC(NC(=O)c1cncnc1)c1cc(Cl)cc(Cl)c1

$$$$

  CDD

  0  0  0  0  0  0            999 V2000
M  END
> <Molecule Name>
CVD-0010021

> <SMILES>
O=C(NC(=O)c1cncnc1)C1COC2(C1)CCNCC2

$$$$

  CDD

  0  0  0  0  0  0            999 V2000
M  END
> <Molecule Name>
CVD-0010020

> <SMILES>
O=C(NCCCn1ccc(=O)[nH]c1=O)c1cncnc1

$$$$

  CDD

  0  0  0  0  0  0            999 V2000
M  END
> <Molecule Name>
CVD-0010019

> <SMILES>
OCCNC(=O)Cn1cc(NC(=O)c2cncnc2)cn1

$$$$

  CDD

  0  0  0  0  0  0            999 V2000
M  END
> <Molecule Name>
CVD-0010018

> <SMILES>
COC(=O)Cc1cc2OCCOc2cc1NC(=O)c1cncnc1

$$$$

  CDD

  0  0  0  0  0  0            999 V2000
M  END
> <Molecule Name>
CVD-0010017

> <SMILES>
CNC(=O)c1cnc2CCC(CCn12)NC(=O)c1cncnc1

$$$$

  CDD

  0  0  0  0  0  0            999 V2000
M  END
> <Molecule Name>
CVD-0010016

> <SMILES>
CS(=O)(=O)NC1CCC(CC1)NC(=O)c1cncnc1

$$$$

  CDD

  0  0  0  0  0  0            999 V2000
M  END
> <Molecule Name>
CVD-0010015

> <SMILES>
O=C(NS(=O)(=O)CCC1NC(=O)NC1=O)c1cncnc1

$$$$

  CDD

  0  0  0  0  0  0            999 V2000
M  END
> <Molecule Name>
CVD-0010014

> <SMILES>
O=C(NCC1(CCOCC1)c1nc[nH]n1)c1cncnc1

$$$$

  CDD

  0  0  0  0  0  0            999 V2000
M  END
> <Molecule Name>
CVD-0010013

> <SMILES>
CCc1nnc(o1)C(NC(=O)c1cncnc1)C1CCN(C)CC1

$$$$

  CDD

  0  0  0  0  0  0            999 V2000
M  END
> <Molecule Name>
CVD-0010012

> <SMILES>
Cc1nn2cc(Br)cnc2c1S(=O)(=O)NC(=O)c1cncnc1

$$$$

  CDD

  0  0  0  0  0  0            999 V2000
M  END
> <Molecule Name>
CVD-0010011

> <SMILES>
CC1Cc2nnc(CNC(=O)c3cncnc3)n2CC(C)O1

$$$$

  CDD

  0  0  0  0  0  0            999 V2000
M  END
> <Molecule Name>
CVD-0010010

> <SMILES>
CC(C)(NC(=O)c1cncnc1)C(=O)NC1CCC(O)CC1

$$$$

  CDD

  0  0  0  0  0  0            999 V2000
M  END
> <Molecule Name>
CVD-0010009

> <SMILES>
O=C(NCc1ccc(CN2CCOCC2)o1)c1cncnc1

$$$$

  CDD

  0  0  0  0  0  0            999 V2000
M  END
> <Molecule Name>
CVD-0010008

> <SMILES>
OC(=O)c1ccnc(c1)N1CCC(CC1)NC(=O)c1cncnc1

$$$$

  CDD

  0  0  0  0  0  0            999 V2000
M  END
> <Molecule Name>
CVD-0010007

> <SMILES>
Clc1cc2NC(=O)COc2cc1S(=O)(=O)NC(=O)c1cncnc1

$$$$

  CDD

  0  0  0  0  0  0            999 V2000
M  END
> <Molecule Name>
CVD-0010006

> <SMILES>
Cn1cc(cc1C(=O)NC(=O)c1cncnc1)S(=O)(=O)N1CCC(CC1)C(O)=O

$$$$

  CDD

  0  0  0  0  0  0            999 V2000
M  END
> <Molecule Name>
CVD-0010005

> <SMILES>
O=C(NC1COCC1c1nnc[nH]1)c1cncnc1

$$$$

  CDD

  0  0  0  0  0  0            999 V2000
M  END
> <Molecule Name>
CVD-0010004

> <SMILES>
CC(NC(=O)c1cncnc1)(C(O)=O)c1cc(F)ccc1F

$$$$

  CDD

  0  0  0  0  0  0            999 V2000
M  END
> <Molecule Name>
CVD-0010003

> <SMILES>
CN1CCC(CC1)(NC(C)=O)c1noc(CNC(=O)c2cncnc2)n1

$$$$

  CDD

  0  0  0  0  0  0            999 V2000
M  END
> <Molecule Name>
CVD-0010002

> <SMILES>
CN(C)c1ccc2nnc(CNC(=O)c3cncnc3)n2n1

$$$$

  CDD

  0  0  0  0  0  0            999 V2000
M  END
> <Molecule Name>
CVD-0010001

> <SMILES>
CC1COCCN1S(=O)(=O)NC(=O)c1cncnc1

$$$$

  CDD

  0  0  0  0  0  0            999 V2000
M  END
> <Molecule Name>
CVD-0010000

> <SMILES>
Cn1ccc(n1)C1CNCC1C(=O)NC(=O)c1cncnc1

$$$$

  CDD

  0  0  0  0  0  0            999 V2000
M  END
> <Molecule Name>
CVD-0009999

> <SMILES>
Cc1csc(n1)C(NC(=O)c1cncnc1)C1CCNCC1

$$$$

  CDD

  0  0  0  0  0  0            999 V2000
M  END
> <Molecule Name>
CVD-0009998

> <SMILES>
O=C(NCCn1cc(C#N)c(=O)[nH]c1=O)c1cncnc1

$$$$

  CDD

  0  0  0  0  0  0            999 V2000
M  END
> <Molecule Name>
CVD-0009997

> <SMILES>
O=C(NC1CN(CCN2CCOCC2)C(=O)C1)c1cncnc1

$$$$

  CDD

  0  0  0  0  0  0            999 V2000
M  END
> <Molecule Name>
CVD-0009996

> <SMILES>
OC(=O)C1(CCS(=O)(=O)C1)NC(=O)c1cncnc1

$$$$

  CDD

  0  0  0  0  0  0            999 V2000
M  END
> <Molecule Name>
CVD-0009995

> <SMILES>
CN(C)C(=O)c1nn(cc1CNC(=O)c1cncnc1)C1CCOCC1

$$$$

  CDD

  0  0  0  0  0  0            999 V2000
M  END
> <Molecule Name>
CVD-0009994

> <SMILES>
CC(Sc1nc(CC(O)=O)cs1)C(=O)NC(=O)c1cncnc1

$$$$

  CDD

  0  0  0  0  0  0            999 V2000
M  END
> <Molecule Name>
CVD-0009993

> <SMILES>
CNc1nccc(n1)N1CC(NC(=O)c2cncnc2)C(C1)OC

$$$$

  CDD

  0  0  0  0  0  0            999 V2000
M  END
> <Molecule Name>
CVD-0009992

> <SMILES>
Cn1nccc1C1CNCC1C(=O)NC(=O)c1cncnc1

$$$$

  CDD

  0  0  0  0  0  0            999 V2000
M  END
> <Molecule Name>
CVD-0009991

> <SMILES>
Fc1ccc(NC(=O)CNC(=O)c2cncnc2)cc1F

$$$$

  CDD

  0  0  0  0  0  0            999 V2000
M  END
> <Molecule Name>
CVD-0009990

> <SMILES>
CC(C)c1noc(n1)C1(CCOCC1)NC(=O)c1cncnc1

$$$$

  CDD

  0  0  0  0  0  0            999 V2000
M  END
> <Molecule Name>
CVD-0009989

> <SMILES>
Cn1ccnc1C1CNCC1C(=O)NC(=O)c1cncnc1

$$$$

  CDD

  0  0  0  0  0  0            999 V2000
M  END
> <Molecule Name>
CVD-0009988

> <SMILES>
CN1C(C(CNC(=O)c2cncnc2)CC1=O)c1ccnn1C

$$$$

  CDD

  0  0  0  0  0  0            999 V2000
M  END
> <Molecule Name>
CVD-0009987

> <SMILES>
O=C(Cn1cc(NC(=O)c2cncnc2)cn1)Nc1cccnc1

$$$$

  CDD

  0  0  0  0  0  0            999 V2000
M  END
> <Molecule Name>
CVD-0009986

> <SMILES>
CC(C)(C)c1cc(NC(=O)c2cncnc2)n(n1)C1CCS(=O)(=O)C1

$$$$

  CDD

  0  0  0  0  0  0            999 V2000
M  END
> <Molecule Name>
CVD-0009985

> <SMILES>
Cn1cncc1C1CNCC1C(=O)NC(=O)c1cncnc1

$$$$

  CDD

  0  0  0  0  0  0            999 V2000
M  END
> <Molecule Name>
CVD-0009984

> <SMILES>
CC(=O)NCCc1c[nH]c2ccc(NC(=O)c3cncnc3)cc12

$$$$

  CDD

  0  0  0  0  0  0            999 V2000
M  END
> <Molecule Name>
CVD-0009983

> <SMILES>
CC(C)(C)n1cc(CNC(=O)c2cncnc2)c(=O)[nH]c1=O

$$$$

  CDD

  0  0  0  0  0  0            999 V2000
M  END
> <Molecule Name>
CVD-0009982

> <SMILES>
Cn1cc(cn1)C1CNCC1C(=O)NC(=O)c1cncnc1

$$$$

  CDD

  0  0  0  0  0  0            999 V2000
M  END
> <Molecule Name>
CVD-0009981

> <SMILES>
O=C(NC1(CCC2(CC1)OCCO2)C#N)c1cncnc1

$$$$

  CDD

  0  0  0  0  0  0            999 V2000
M  END
> <Molecule Name>
CVD-0009980

> <SMILES>
OC(=O)CCCn1cnc2c(NC(=O)c3cncnc3)ncnc12

$$$$

  CDD

  0  0  0  0  0  0            999 V2000
M  END
> <Molecule Name>
CVD-0009979

> <SMILES>
CN1C(C(CNC(=O)c2cncnc2)OCC1=O)c1ccnn1C

$$$$

  CDD

  0  0  0  0  0  0            999 V2000
M  END
> <Molecule Name>
CVD-0009978

> <SMILES>
CCc1n[nH]c(n1)C1CCC(CNC(=O)c2cncnc2)O1

$$$$

  CDD

  0  0  0  0  0  0            999 V2000
M  END
> <Molecule Name>
CVD-0009977

> <SMILES>
CN(C)CC1CCOC1c1nc(CNC(=O)c2cncnc2)n[nH]1

$$$$

  CDD

  0  0  0  0  0  0            999 V2000
M  END
> <Molecule Name>
CVD-0009976

> <SMILES>
COC(=O)C(C)NC(=O)C(C)NC(=O)c1cncnc1

$$$$

  CDD

  0  0  0  0  0  0            999 V2000
M  END
> <Molecule Name>
CVD-0009975

> <SMILES>
COCc1n[nH]c(n1)C1(CNC(=O)c2cncnc2)CCOCC1

$$$$

  CDD

  0  0  0  0  0  0            999 V2000
M  END
> <Molecule Name>
CVD-0009974

> <SMILES>
COC(=O)C1CC(CS1(=O)=O)NC(=O)c1cncnc1

$$$$

  CDD

  0  0  0  0  0  0            999 V2000
M  END
> <Molecule Name>
CVD-0009973

> <SMILES>
O=C(Cn1ccc2cc(NC(=O)c3cncnc3)ccc12)N1CCOCC1

$$$$

  CDD

  0  0  0  0  0  0            999 V2000
M  END
> <Molecule Name>
CVD-0009972

> <SMILES>
COc1cc(OC)cc(c1)N1CCC(C1)NC(=O)c1cncnc1

$$$$

  CDD

  0  0  0  0  0  0            999 V2000
M  END
> <Molecule Name>
CVD-0009971

> <SMILES>
OC(=O)c1c[nH]nc1S(=O)(=O)NC(=O)c1cncnc1

$$$$

  CDD

  0  0  0  0  0  0            999 V2000
M  END
> <Molecule Name>
CVD-0009970

> <SMILES>
CC(NC(=O)c1cncnc1)C(C)C(=O)Nc1ncccc1O

$$$$

  CDD

  0  0  0  0  0  0            999 V2000
M  END
> <Molecule Name>
CVD-0009969

> <SMILES>
OC(=O)C(NC(=O)c1cncnc1)c1cc(O)cc(O)c1

$$$$

  CDD

  0  0  0  0  0  0            999 V2000
M  END
> <Molecule Name>
CVD-0009968

> <SMILES>
O=C(NCC1CCC2(CCOC2)O1)c1cncnc1

$$$$

  CDD

  0  0  0  0  0  0            999 V2000
M  END
> <Molecule Name>
CVD-0009967

> <SMILES>
OC(=O)c1cc(c[nH]1)S(=O)(=O)NCC(=O)NC(=O)c1cncnc1

$$$$

  CDD

  0  0  0  0  0  0            999 V2000
M  END
> <Molecule Name>
CVD-0009966

> <SMILES>
COC(=O)C(Cc1c[nH]c2ccc(OC)cc12)NC(=O)c1cncnc1

$$$$

  CDD

  0  0  0  0  0  0            999 V2000
M  END
> <Molecule Name>
CVD-0009965

> <SMILES>
Cc1nc(n[nH]1)C1(CNC(=O)c2cncnc2)CCOCC1

$$$$

  CDD

  0  0  0  0  0  0            999 V2000
M  END
> <Molecule Name>
CVD-0009964

> <SMILES>
OC(=O)CCn1cc(cn1)S(=O)(=O)NC(=O)c1cncnc1

$$$$

  CDD

  0  0  0  0  0  0            999 V2000
M  END
> <Molecule Name>
CVD-0009963

> <SMILES>
Fc1ccc(NC(=O)CNC(=O)c2cncnc2)c(F)c1F

$$$$

  CDD

  0  0  0  0  0  0            999 V2000
M  END
> <Molecule Name>
CVD-0009962

> <SMILES>
CCOC(=O)C1(C)COCC1NC(=O)c1cncnc1

$$$$

  CDD

  0  0  0  0  0  0            999 V2000
M  END
> <Molecule Name>
CVD-0009961

> <SMILES>
CC(=O)N1CC(CNC(=O)c2cncnc2)OC2COCC12

$$$$

  CDD

  0  0  0  0  0  0            999 V2000
M  END
> <Molecule Name>
CVD-0009960

> <SMILES>
COCC1CCOC1c1nc(CNC(=O)c2cncnc2)n[nH]1

$$$$

  CDD

  0  0  0  0  0  0            999 V2000
M  END
> <Molecule Name>
CVD-0009959

> <SMILES>
CC(=O)NCc1cn(CC2(CNC(=O)c3cncnc3)CCOCC2)nn1

$$$$

  CDD

  0  0  0  0  0  0            999 V2000
M  END
> <Molecule Name>
CVD-0009958

> <SMILES>
O=C(NC(=O)c1cncnc1)C1CCCN1C(=O)C1CCNCC1

$$$$

  CDD

  0  0  0  0  0  0            999 V2000
M  END
> <Molecule Name>
CVD-0009957

> <SMILES>
O=C(NCC1CN(CCO1)c1ncnc2[nH]cnc12)c1cncnc1

$$$$

  CDD

  0  0  0  0  0  0            999 V2000
M  END
> <Molecule Name>
CVD-0009956

> <SMILES>
O=C(NS(=O)(=O)c1cc(ccn1)C#N)c1cncnc1

$$$$

  CDD

  0  0  0  0  0  0            999 V2000
M  END
> <Molecule Name>
CVD-0009955

> <SMILES>
COC(=O)c1sc(NC(=O)c2cncnc2)c(C(=O)OC)c1CN1CCOCC1

$$$$

  CDD

  0  0  0  0  0  0            999 V2000
M  END
> <Molecule Name>
CVD-0009954

> <SMILES>
Cc1cc(NCCNC(=O)c2cncnc2)n2ncnc2n1

$$$$

  CDD

  0  0  0  0  0  0            999 V2000
M  END
> <Molecule Name>
CVD-0009953

> <SMILES>
CCc1nc(n[nH]1)C1(CNC(=O)c2cncnc2)CCOCC1

$$$$

  CDD

  0  0  0  0  0  0            999 V2000
M  END
> <Molecule Name>
CVD-0009952

> <SMILES>
Fc1ccc(F)c(c1)C(NC(=O)c1cncnc1)c1ccncc1

$$$$

  CDD

  0  0  0  0  0  0            999 V2000
M  END
> <Molecule Name>
CVD-0009951

> <SMILES>
Fc1ccc(NC(=O)c2cncnc2)cc1NC(=O)CCN1CCOCC1

$$$$

  CDD

  0  0  0  0  0  0            999 V2000
M  END
> <Molecule Name>
CVD-0009950

> <SMILES>
Cn1cc(cc1C(=O)NCCNC(=O)c1cncnc1)S(=O)(=O)N1CCOCC1

$$$$

  CDD

  0  0  0  0  0  0            999 V2000
M  END
> <Molecule Name>
CVD-0009949

> <SMILES>
CC(=O)NC(CC(O)=O)C(=O)NC(=O)c1cncnc1

$$$$

  CDD

  0  0  0  0  0  0            999 V2000
M  END
> <Molecule Name>
CVD-0009948

> <SMILES>
COCCn1cc(cn1)C1C(CNC(=O)c2cncnc2)CC(=O)N1C(C)(C)C

$$$$

  CDD

  0  0  0  0  0  0            999 V2000
M  END
> <Molecule Name>
CVD-0009947

> <SMILES>
OC(=O)CNS(=O)(=O)c1c[nH]c(c1)C(=O)NC(=O)c1cncnc1

$$$$

  CDD

  0  0  0  0  0  0            999 V2000
M  END
> <Molecule Name>
CVD-0009946

> <SMILES>
O=C(NC1COCC1N1CCOCC1)c1cncnc1

$$$$

  CDD

  0  0  0  0  0  0            999 V2000
M  END
> <Molecule Name>
CVD-0009945

> <SMILES>
O=C(NC(=O)c1cncnc1)C1CCC(O1)c1nnc2CNCCn12

$$$$

  CDD

  0  0  0  0  0  0            999 V2000
M  END
> <Molecule Name>
CVD-0009944

> <SMILES>
Cc1nc2cc(NC(=O)c3cncnc3)ccc2n1C(CO)CO

$$$$

  CDD

  0  0  0  0  0  0            999 V2000
M  END
> <Molecule Name>
CVD-0009943

> <SMILES>
Cc1c(cnn1C)C1CNCC1C(=O)NC(=O)c1cncnc1

$$$$

  CDD

  0  0  0  0  0  0            999 V2000
M  END
> <Molecule Name>
CVD-0009942

> <SMILES>
COc1cc(OC)cc(c1)N1CCC(NC(=O)c2cncnc2)C1=O

$$$$

  CDD

  0  0  0  0  0  0            999 V2000
M  END
> <Molecule Name>
CVD-0009941

> <SMILES>
O=C(Cn1ccc(NC(=O)c2cncnc2)n1)N1CCOCC1

$$$$

  CDD

  0  0  0  0  0  0            999 V2000
M  END
> <Molecule Name>
CVD-0009940

> <SMILES>
CC(C)c1nc(n[nH]1)C1(CNC(=O)c2cncnc2)CCOCC1

$$$$

  CDD

  0  0  0  0  0  0            999 V2000
M  END
> <Molecule Name>
CVD-0009939

> <SMILES>
COC1COCC1n1cc(CNC(=O)c2cncnc2)nn1

$$$$

  CDD

  0  0  0  0  0  0            999 V2000
M  END
> <Molecule Name>
CVD-0009938

> <SMILES>
CCOC(=O)c1c(CN2CCOCC2)c(sc1NC(=O)c1cncnc1)C(=O)N(C)C

$$$$

  CDD

  0  0  0  0  0  0            999 V2000
M  END
> <Molecule Name>
CVD-0009937

> <SMILES>
O=C(NC(=O)c1cncnc1)C1CCOC1C1CCNCC1

$$$$

  CDD

  0  0  0  0  0  0            999 V2000
M  END
> <Molecule Name>
CVD-0009936

> <SMILES>
O=C(NC1CCC2(CC1)NC(=O)NC2=O)c1cncnc1

$$$$

  CDD

  0  0  0  0  0  0            999 V2000
M  END
> <Molecule Name>
CVD-0009935

> <SMILES>
O=C(Cn1cc(NC(=O)c2cncnc2)cn1)N1CCOCC1

$$$$

  CDD

  0  0  0  0  0  0            999 V2000
M  END
> <Molecule Name>
CVD-0009934

> <SMILES>
CC(C)(C)NC(=O)CN1CCC(CNC(=O)c2cncnc2)CC1

$$$$

  CDD

  0  0  0  0  0  0            999 V2000
M  END
> <Molecule Name>
CVD-0009933

> <SMILES>
Cn1ncc2N(CC(CNC(=O)c3cncnc3)Cc12)S(C)(=O)=O

$$$$

  CDD

  0  0  0  0  0  0            999 V2000
M  END
> <Molecule Name>
CVD-0009932

> <SMILES>
O=C(NCC1CCC2(CCCOC2)O1)c1cncnc1

$$$$

  CDD

  0  0  0  0  0  0            999 V2000
M  END
> <Molecule Name>
CVD-0009931

> <SMILES>
COCc1cc(O)nc(n1)N1CCC(C1)NC(=O)c1cncnc1

$$$$

  CDD

  0  0  0  0  0  0            999 V2000
M  END
> <Molecule Name>
CVD-0009930

> <SMILES>
Cn1cc(cc1C(=O)NC(=O)c1cncnc1)S(=O)(=O)N1CCNCC1

$$$$

  CDD

  0  0  0  0  0  0            999 V2000
M  END
> <Molecule Name>
CVD-0009929

> <SMILES>
Cn1cc(cc1C(=O)C(O)=O)S(=O)(=O)NC(=O)c1cncnc1

$$$$

  CDD

  0  0  0  0  0  0            999 V2000
M  END
> <Molecule Name>
CVD-0009928

> <SMILES>
COC(=O)C(N1CCC(S)\C(C1)=C\C(O)=O)c1ccccc1Cl

$$$$

  CDD

  0  0  0  0  0  0            999 V2000
M  END
> <Molecule Name>
CVD-0009927

> <SMILES>
O=C(Nc1nncn1C1CC1)C1CCOc2ccccc12

$$$$

  CDD

  0  0  0  0  0  0            999 V2000
M  END
> <Molecule Name>
CVD-0009926

> <SMILES>
C[C@@H](O)[C@H](NC(C)=O)C(=O)NCC#CBr

$$$$

  CDD

  0  0  0  0  0  0            999 V2000
M  END
> <Molecule Name>
CVD-0009925

> <SMILES>
Cc1ccncc1C(N(Cc1cccc(Cl)c1)C(=O)C=C)C(=O)NCCc1cccc(F)c1

$$$$

  CDD

  0  0  0  0  0  0            999 V2000
M  END
> <Molecule Name>
CVD-0009924

> <SMILES>
CC(C)(C)NC(=O)C(N(C(=O)C=C)c1ccc(CCC#N)cc1)c1cccnc1

$$$$

  CDD

  0  0  0  0  0  0            999 V2000
M  END
> <Molecule Name>
CVD-0009923

> <SMILES>
COc1ccc(Cl)cc1OCCNC(=O)c1cc(=O)[nH]c2ccccc12

$$$$

  CDD

  0  0  0  0  0  0            999 V2000
M  END
> <Molecule Name>
CVD-0009922

> <SMILES>
Cc1ccncc1OCCNC(=O)C(C)(C)c1cccc(Cl)c1

$$$$

  CDD

  0  0  0  0  0  0            999 V2000
M  END
> <Molecule Name>
CVD-0009921

> <SMILES>
CCC(C)(C)CCN(C(c1ccccc1)c1cncnc1)C(=O)Cn1nnc2ccccc12

$$$$

  CDD

  0  0  0  0  0  0            999 V2000
M  END
> <Molecule Name>
CVD-0009920

> <SMILES>
CCC(C)(C)CCN(C(=O)Cn1nnc2ccccc12)c1ccc(Oc2nnn[nH]2)cc1

$$$$

  CDD

  0  0  0  0  0  0            999 V2000
M  END
> <Molecule Name>
CVD-0009919

> <SMILES>
CCC(C)(C)CCN(C(c1nnn[nH]1)c1ccccc1)C(=O)Cn1nnc2ccccc12

$$$$

  CDD

  0  0  0  0  0  0            999 V2000
M  END
> <Molecule Name>
CVD-0009918

> <SMILES>
CN(C)c1cc(Cl)cc(c1)N(C(=O)Nc1cnccc1C)C(=O)c1cc(=O)[nH]c2ccccc12

$$$$

  CDD

  0  0  0  0  0  0            999 V2000
M  END
> <Molecule Name>
CVD-0009917

> <SMILES>
COc1cccc(c1)C(NC(=O)Cc1cccc(Cl)c1)c1nc2ccccc2[nH]1

$$$$

  CDD

  0  0  0  0  0  0            999 V2000
M  END
> <Molecule Name>
CVD-0009916

> <SMILES>
Cn1c(nc2ccccc12)C(NC(=O)Cc1cc2ccccc2[nH]1)c1cccc(Cl)c1

$$$$

  CDD

  0  0  0  0  0  0            999 V2000
M  END
> <Molecule Name>
CVD-0009915

> <SMILES>
Clc1cccc(OC(=O)Nc2cnccc2-c2ccccc2)c1

$$$$

  CDD

  0  0  0  0  0  0            999 V2000
M  END
> <Molecule Name>
CVD-0009914

> <SMILES>
Clc1cccc(OC(=O)Nc2cncc3ccccc23)c1

$$$$

  CDD

  0  0  0  0  0  0            999 V2000
M  END
> <Molecule Name>
CVD-0009913

> <SMILES>
Clc1cc(cc(c1)-c1ccccc1)C(C(=O)Nc1cccnc1)C(=O)c1cc(=O)[nH]c2ccccc12

$$$$

  CDD

  0  0  0  0  0  0            999 V2000
M  END
> <Molecule Name>
CVD-0009912

> <SMILES>
COc1cccc(CCN(C(=O)c2cc(=O)[nH]c3ccccc23)c2cccc(Cl)c2)c1

$$$$

  CDD

  0  0  0  0  0  0            999 V2000
M  END
> <Molecule Name>
CVD-0009911

> <SMILES>
CN(C)c1cncc(CN(C(=O)c2cc(=O)[nH]c3ccccc23)c2cccc(Cl)c2)c1

$$$$

  CDD

  0  0  0  0  0  0            999 V2000
M  END
> <Molecule Name>
CVD-0009910

> <SMILES>
Cc1ccncc1NC(=O)N(C(=O)c1cc(=O)[nH]c2ccccc12)c1cccc(Cl)c1

$$$$

  CDD

  0  0  0  0  0  0            999 V2000
M  END
> <Molecule Name>
CVD-0009909

> <SMILES>
Cc1ccncc1NC(=O)C(C(=O)c1cc(=O)[nH]c2ccccc12)c1cccc(Cl)c1

$$$$

  CDD

  0  0  0  0  0  0            999 V2000
M  END
> <Molecule Name>
CVD-0009908

> <SMILES>
Clc1ccc2OCCC(C(=O)NC3CC(=O)NC3=O)c2c1

$$$$

  CDD

  0  0  0  0  0  0            999 V2000
M  END
> <Molecule Name>
CVD-0009907

> <SMILES>
Clc1cccc(CC(=O)NC2CC(=O)NC2=O)c1

$$$$

  CDD

  0  0  0  0  0  0            999 V2000
M  END
> <Molecule Name>
CVD-0009906

> <SMILES>
Clc1ccc2OCCC(C(=O)NC3CCCNC3=O)c2c1

$$$$

  CDD

  0  0  0  0  0  0            999 V2000
M  END
> <Molecule Name>
CVD-0009905

> <SMILES>
Clc1cccc(CC(=O)NC2CCCNC2=O)c1

$$$$

  CDD

  0  0  0  0  0  0            999 V2000
M  END
> <Molecule Name>
CVD-0009904

> <SMILES>
Clc1cccc(CC(=O)N2CC3CCC2C3)c1

$$$$

  CDD

  0  0  0  0  0  0            999 V2000
M  END
> <Molecule Name>
CVD-0009903

> <SMILES>
Clc1cccc(CC(=O)N2Cc3ccccc3C2)c1

$$$$

  CDD

  0  0  0  0  0  0            999 V2000
M  END
> <Molecule Name>
CVD-0009902

> <SMILES>
CC[C@H]1CC=C([C@@H](O)[C@@H](C(=O)NC2CCCCC2)c2cccnc2)C(=O)C1

$$$$

  CDD

  0  0  0  0  0  0            999 V2000
M  END
> <Molecule Name>
CVD-0009901

> <SMILES>
NCCNC(=O)c1nc(Cl)c(nc1N)N1CCCCCC1

$$$$

  CDD

  0  0  0  0  0  0            999 V2000
M  END
> <Molecule Name>
CVD-0009900

> <SMILES>
NC(=O)CC[C@@H](CN1N=CC(O)C1=O)NC(=O)C1=CC=CC1

$$$$

  CDD

  0  0  0  0  0  0            999 V2000
M  END
> <Molecule Name>
CVD-0009899

> <SMILES>
CC1=CC=C(C1)C(=O)N[C@H](CN1N=CC(O)C1=O)c1ccoc1

$$$$

  CDD

  0  0  0  0  0  0            999 V2000
M  END
> <Molecule Name>
CVD-0009898

> <SMILES>
OC1C=NN(C[C@H](CCC(F)F)NC(=O)C2=CC=CSC2)C1=O

$$$$

  CDD

  0  0  0  0  0  0            999 V2000
M  END
> <Molecule Name>
CVD-0009897

> <SMILES>
OC1C=NN(C[C@@H](NC(=O)C2=CC=C(Cl)C2)C2=CNOC2)C1=O

$$$$

  CDD

  0  0  0  0  0  0            999 V2000
M  END
> <Molecule Name>
CVD-0009896

> <SMILES>
Cc1ccc(s1)C(=O)O[C@H](CN1N=CC(O)C1=O)C1=CNOC1

$$$$

  CDD

  0  0  0  0  0  0            999 V2000
M  END
> <Molecule Name>
CVD-0009895

> <SMILES>
OC1C=NN(C[C@@H](NC(=O)c2ccccc2)c2cc(O)on2)C1=O

$$$$

  CDD

  0  0  0  0  0  0            999 V2000
M  END
> <Molecule Name>
CVD-0009894

> <SMILES>
OC1C=NN(C[C@@H](NC(=O)C2=CCC(Cl)=C2)C2=CNOC2)C1=O

$$$$

  CDD

  0  0  0  0  0  0            999 V2000
M  END
> <Molecule Name>
CVD-0009893

> <SMILES>
C[C@@H](NC(=O)CO)[C@H](CCC(O)=O)NC(=O)c1c-2cccc1-2

$$$$

  CDD

  0  0  0  0  0  0            999 V2000
M  END
> <Molecule Name>
CVD-0009892

> <SMILES>
CC1=CC=C(C1)C(=O)N[C@H](CN1N=CC(O)C1=O)c1cc(O)on1

$$$$

  CDD

  0  0  0  0  0  0            999 V2000
M  END
> <Molecule Name>
CVD-0009891

> <SMILES>
Clc1ccc2OCCC(C(=O)NC3CCNC3=O)c2c1

$$$$

  CDD

  0  0  0  0  0  0            999 V2000
M  END
> <Molecule Name>
CVD-0009890

> <SMILES>
Clc1ccc2OCCC(C(=O)NC3CNC(=O)C3)c2c1

$$$$

  CDD

  0  0  0  0  0  0            999 V2000
M  END
> <Molecule Name>
CVD-0009889

> <SMILES>
Clc1cccc(CC(=O)NC2CNC(=O)C2)c1

$$$$

  CDD

  0  0  0  0  0  0            999 V2000
M  END
> <Molecule Name>
CVD-0009888

> <SMILES>
Clc1cccc(CC(=O)NC2CCNC2=O)c1

$$$$

  CDD

  0  0  0  0  0  0            999 V2000
M  END
> <Molecule Name>
CVD-0009887

> <SMILES>
Brc1ccc2N(Cc3ncon3)C(=O)C(=O)c2c1

$$$$

  CDD

  0  0  0  0  0  0            999 V2000
M  END
> <Molecule Name>
CVD-0009886

> <SMILES>
Cc1cccc(C)c1NC(=O)CN1C(=O)C(=O)c2ccccc12

$$$$

  CDD

  0  0  0  0  0  0            999 V2000
M  END
> <Molecule Name>
CVD-0009885

> <SMILES>
O=C(OCCCC#N)c1cccc2C(=O)C(=O)Nc12

$$$$

  CDD

  0  0  0  0  0  0            999 V2000
M  END
> <Molecule Name>
CVD-0009884

> <SMILES>
COC(=O)c1cc(Br)cc2C(=O)C(=O)Nc12

$$$$

  CDD

  0  0  0  0  0  0            999 V2000
M  END
> <Molecule Name>
CVD-0009883

> <SMILES>
COc1ccc2NC(=O)C(=O)c2c1F

$$$$

  CDD

  0  0  0  0  0  0            999 V2000
M  END
> <Molecule Name>
CVD-0009882

> <SMILES>
FCCOc1ccc2NC(=O)C(=O)c2c1

$$$$

  CDD

  0  0  0  0  0  0            999 V2000
M  END
> <Molecule Name>
CVD-0009881

> <SMILES>
CC(C)(C)NC(=O)CN1C(=O)C(=O)c2cccc(Br)c12

$$$$

  CDD

  0  0  0  0  0  0            999 V2000
M  END
> <Molecule Name>
CVD-0009880

> <SMILES>
Brc1cccc2C(=O)C(=O)N(Cc3cccc(c3)C#N)c12

$$$$

  CDD

  0  0  0  0  0  0            999 V2000
M  END
> <Molecule Name>
CVD-0009879

> <SMILES>
Fc1cc(ccc1CN1C(=O)C(=O)c2cccc(Br)c12)C#N

$$$$

  CDD

  0  0  0  0  0  0            999 V2000
M  END
> <Molecule Name>
CVD-0009878

> <SMILES>
CCc1cccc(CC)c1NC(=O)CN1C(=O)C(=O)c2cc(OC)ccc12

$$$$

  CDD

  0  0  0  0  0  0            999 V2000
M  END
> <Molecule Name>
CVD-0009877

> <SMILES>
Cc1cccc(NC(=O)CN2C(=O)C(=O)c3ccccc23)c1

$$$$

  CDD

  0  0  0  0  0  0            999 V2000
M  END
> <Molecule Name>
CVD-0009876

> <SMILES>
COc1ccc(CN2C(=O)C(=O)c3cc(Br)cc(C)c23)cc1OC

$$$$

  CDD

  0  0  0  0  0  0            999 V2000
M  END
> <Molecule Name>
CVD-0009875

> <SMILES>
CCOc1ccccc1CN1C(=O)C(=O)c2cc(Br)ccc12

$$$$

  CDD

  0  0  0  0  0  0            999 V2000
M  END
> <Molecule Name>
CVD-0009874

> <SMILES>
Cc1ccc(OCCN2C(=O)C(=O)c3cccc(Cl)c23)cc1

$$$$

  CDD

  0  0  0  0  0  0            999 V2000
M  END
> <Molecule Name>
CVD-0009873

> <SMILES>
COc1ccccc1OCCN1C(=O)C(=O)c2cc(Br)cc(C)c12

$$$$

  CDD

  0  0  0  0  0  0            999 V2000
M  END
> <Molecule Name>
CVD-0009872

> <SMILES>
Clc1ccc(OCCCN2C(=O)C(=O)c3ccccc23)cc1

$$$$

  CDD

  0  0  0  0  0  0            999 V2000
M  END
> <Molecule Name>
CVD-0009871

> <SMILES>
Cc1cccc(COC(=O)c2cccc3C(=O)C(=O)Nc23)c1

$$$$

  CDD

  0  0  0  0  0  0            999 V2000
M  END
> <Molecule Name>
CVD-0009870

> <SMILES>
O=C1Nc2cc(ccc2C1=O)N1CCCC1

$$$$

  CDD

  0  0  0  0  0  0            999 V2000
M  END
> <Molecule Name>
CVD-0009869

> <SMILES>
Fc1cccc(C[C@]2(CCOc3ccc(Cl)cc23)C(=O)Nc2nncn2C2CC2)c1

$$$$

  CDD

  0  0  0  0  0  0            999 V2000
M  END
> <Molecule Name>
CVD-0009868

> <SMILES>
Fc1ccc(C[C@]2(CCOc3ccc(Cl)cc23)C(=O)Nc2nncn2C2CC2)cc1

$$$$

  CDD

  0  0  0  0  0  0            999 V2000
M  END
> <Molecule Name>
CVD-0009867

> <SMILES>
Clc1ccc2OCC[C@@](Cc3ccccc3)(C(=O)Nc3nncn3C3CC3)c2c1

$$$$

  CDD

  0  0  0  0  0  0            999 V2000
M  END
> <Molecule Name>
CVD-0009866

> <SMILES>
Clc1ccc2OCC[C@@](CC3CCCCC3)(C(=O)Nc3nncn3C3CC3)c2c1

$$$$

  CDD

  0  0  0  0  0  0            999 V2000
M  END
> <Molecule Name>
CVD-0009865

> <SMILES>
CCCC(C(=O)Nn1cnc2ccccc2c1=O)c1cc(Cl)cc(OC2CC(=O)N2)c1

$$$$

  CDD

  0  0  0  0  0  0            999 V2000
M  END
> <Molecule Name>
CVD-0009864

> <SMILES>
Clc1cc(CC(=O)Nn2cnc3ccccc3c2=O)cc(OC2CC(=O)N2)c1

$$$$

  CDD

  0  0  0  0  0  0            999 V2000
M  END
> <Molecule Name>
CVD-0009863

> <SMILES>
Clc1cc(OC2CC(=O)N2)cc(c1)C(CCc1ccccc1)C(=O)Nn1cnc2ccccc12

$$$$

  CDD

  0  0  0  0  0  0            999 V2000
M  END
> <Molecule Name>
CVD-0009862

> <SMILES>
Clc1cc(CC(=O)Nn2cnc3ccccc23)cc(OC2CC(=O)N2)c1

$$$$

  CDD

  0  0  0  0  0  0            999 V2000
M  END
> <Molecule Name>
CVD-0009861

> <SMILES>
Clc1cc(OC2CC(=O)N2)cc(c1)C(CCc1ccccc1)C(=O)Nc1nc2ccccc2[nH]1

$$$$

  CDD

  0  0  0  0  0  0            999 V2000
M  END
> <Molecule Name>
CVD-0009860

> <SMILES>
Clc1cc(CC(=O)Nc2nc3ccccc3[nH]2)cc(OC2CC(=O)N2)c1

$$$$

  CDD

  0  0  0  0  0  0            999 V2000
M  END
> <Molecule Name>
CVD-0009859

> <SMILES>
COc1cc(Cl)cc(OC(=O)Nc2cnccc2C)c1

$$$$

  CDD

  0  0  0  0  0  0            999 V2000
M  END
> <Molecule Name>
CVD-0009858

> <SMILES>
COc1cc(Cl)cc(CC(=O)Nc2cnccc2C)c1

$$$$

  CDD

  0  0  0  0  0  0            999 V2000
M  END
> <Molecule Name>
CVD-0009857

> <SMILES>
CN(C)C(=O)c1cc(OC(N)=O)cc2oc3CC=C(C)c3c(=O)c12

$$$$

  CDD

  0  0  0  0  0  0            999 V2000
M  END
> <Molecule Name>
CVD-0009856

> <SMILES>
CCc1c(C)oc2cc(OC(=O)NC)cc(C(=O)N(C)C)c2c1=O

$$$$

  CDD

  0  0  0  0  0  0            999 V2000
M  END
> <Molecule Name>
CVD-0009855

> <SMILES>
CN(C)C(=O)c1cc(OC(N)=O)cc2oc3CCCc3c(=O)c12

$$$$

  CDD

  0  0  0  0  0  0            999 V2000
M  END
> <Molecule Name>
CVD-0009854

> <SMILES>
CCN(C)C(=O)c1cc(OC(N)=O)cc2oc3CCCc3c(=O)c12

$$$$

  CDD

  0  0  0  0  0  0            999 V2000
M  END
> <Molecule Name>
CVD-0009853

> <SMILES>
CC(C)c1coc2cc(OC(N)=O)cc(C(=O)N(C)C)c2c1=O

$$$$

  CDD

  0  0  0  0  0  0            999 V2000
M  END
> <Molecule Name>
CVD-0009852

> <SMILES>
C\C=C1/C=Cc2oc3cc(OC(N)=O)cc(C(=O)N(C)C)c3c(=O)c12

$$$$

  CDD

  0  0  0  0  0  0            999 V2000
M  END
> <Molecule Name>
CVD-0009851

> <SMILES>
C\C=C\c1coc2cc(OC(N)=O)cc(C(=O)N(C)C)c2c1=O

$$$$

  CDD

  0  0  0  0  0  0            999 V2000
M  END
> <Molecule Name>
CVD-0009850

> <SMILES>
CCCc1c(C)oc2cc(OC(N)=O)cc(C(=O)N(C)C)c2c1=O

$$$$

  CDD

  0  0  0  0  0  0            999 V2000
M  END
> <Molecule Name>
CVD-0009849

> <SMILES>
CN(C)C(=O)c1cc(OC(N)=O)cc2oc3CCC(=C)c3c(=O)c12

$$$$

  CDD

  0  0  0  0  0  0            999 V2000
M  END
> <Molecule Name>
CVD-0009848

> <SMILES>
C\C=C(/C)c1coc2cc(OC(N)=O)cc(C(=O)N(C)C)c2c1=O

$$$$

  CDD

  0  0  0  0  0  0            999 V2000
M  END
> <Molecule Name>
CVD-0009847

> <SMILES>
C\C=C1/CCc2oc3cc(OC(N)=O)cc(C(=O)N(C)C)c3c(=O)c12

$$$$

  CDD

  0  0  0  0  0  0            999 V2000
M  END
> <Molecule Name>
CVD-0009846

> <SMILES>
CN(C)C(=O)c1cc(OC(N)=O)cc2occ(C(C)=C)c(=O)c12

$$$$

  CDD

  0  0  0  0  0  0            999 V2000
M  END
> <Molecule Name>
CVD-0009845

> <SMILES>
CN(C)C(=O)c1cc(OC(N)=O)cc2oc(C)c(C)c(=O)c12

$$$$

  CDD

  0  0  0  0  0  0            999 V2000
M  END
> <Molecule Name>
CVD-0009844

> <SMILES>
CCc1c(C)oc2cc(OC(N)=O)cc(C(=O)N(C)C)c2c1=O

$$$$

  CDD

  0  0  0  0  0  0            999 V2000
M  END
> <Molecule Name>
CVD-0009843

> <SMILES>
CC(C)c1c(C)oc2cc(OC(N)=O)cc(C(=O)N(C)C)c2c1=O

$$$$

  CDD

  0  0  0  0  0  0            999 V2000
M  END
> <Molecule Name>
CVD-0009842

> <SMILES>
C\C=C\c1c(C)oc2cc(OC(N)=O)cc(C(=O)N(C)C)c2c1=O

$$$$

  CDD

  0  0  0  0  0  0            999 V2000
M  END
> <Molecule Name>
CVD-0009841

> <SMILES>
CN(C)C(=O)c1cc(OC(N)=O)cc2oc(C)c(C(C)=C(C)C)c(=O)c12

$$$$

  CDD

  0  0  0  0  0  0            999 V2000
M  END
> <Molecule Name>
CVD-0009840

> <SMILES>
CN(C)C(=O)c1cc(OC(N)=O)cc2oc(C)c(C(C)=C)c(=O)c12

$$$$

  CDD

  0  0  0  0  0  0            999 V2000
M  END
> <Molecule Name>
CVD-0009839

> <SMILES>
C\C=C(/C)c1c(C)oc2cc(OC(N)=O)cc(C(=O)N(C)C)c2c1=O

$$$$

  CDD

  0  0  0  0  0  0            999 V2000
M  END
> <Molecule Name>
CVD-0009838

> <SMILES>
CN(C)C(=O)c1cc(OC(N)=O)cc2oc3CCCCc3c(=O)c12

$$$$

  CDD

  0  0  0  0  0  0            999 V2000
M  END
> <Molecule Name>
CVD-0009837

> <SMILES>
Cc1nnc(NC(=O)C2COc3ccc(Cl)cc23)n1C1CC1

$$$$

  CDD

  0  0  0  0  0  0            999 V2000
M  END
> <Molecule Name>
CVD-0009836

> <SMILES>
O=C(Nc1nncn1C1CC1)C1CCCc2ccccc12

$$$$

  CDD

  0  0  0  0  0  0            999 V2000
M  END
> <Molecule Name>
CVD-0009835

> <SMILES>
Cc1[nH]c2ncnc(NC(=O)c3cccc4n(C)c(=O)oc34)c2c1C

$$$$

  CDD

  0  0  0  0  0  0            999 V2000
M  END
> <Molecule Name>
CVD-0009834

> <SMILES>
O=C(CC1NC(=O)c2ccccc12)NC1CCc2nc([nH]c2C1)C1CCCCC1

$$$$

  CDD

  0  0  0  0  0  0            999 V2000
M  END
> <Molecule Name>
CVD-0009833

> <SMILES>
Cc1[nH]c2ncnc(NC(=O)C3CCN(CC3)c3ccc(Cl)cn3)c2c1C

$$$$

  CDD

  0  0  0  0  0  0            999 V2000
M  END
> <Molecule Name>
CVD-0009832

> <SMILES>
O=C(Nc1c[nH]nc1-c1ccccn1)c1cccc2nccn12

$$$$

  CDD

  0  0  0  0  0  0            999 V2000
M  END
> <Molecule Name>
CVD-0009831

> <SMILES>
O=C1CCCN1Cc1cccc(c1)-c1noc(n1)-c1ccnc2[nH]ccc12

$$$$

  CDD

  0  0  0  0  0  0            999 V2000
M  END
> <Molecule Name>
CVD-0009830

> <SMILES>
Fc1cc(ccc1NC(=O)C1CCCCC(=O)N1)-c1nc[nH]n1

$$$$

  CDD

  0  0  0  0  0  0            999 V2000
M  END
> <Molecule Name>
CVD-0009829

> <SMILES>
Cc1[nH]c2ncnc(NC(=O)c3cc4ccccc4c(=O)o3)c2c1C

$$$$

  CDD

  0  0  0  0  0  0            999 V2000
M  END
> <Molecule Name>
CVD-0009828

> <SMILES>
O=C(CC1NC(=O)c2ccccc12)N1CC2(CC(C2)OCc2ccccc2)C1

$$$$

  CDD

  0  0  0  0  0  0            999 V2000
M  END
> <Molecule Name>
CVD-0009827

> <SMILES>
O=C(CC1NC(=O)c2ccccc12)NCc1ccc(cc1)C#CC1CC1

$$$$

  CDD

  0  0  0  0  0  0            999 V2000
M  END
> <Molecule Name>
CVD-0009826

> <SMILES>
C(Oc1ccc(cc1)-c1noc(n1)-c1ncnc2[nH]ccc12)c1ccccc1

$$$$

  CDD

  0  0  0  0  0  0            999 V2000
M  END
> <Molecule Name>
CVD-0009825

> <SMILES>
O=C(Nc1cccc2ncccc12)c1c[nH]c2ncncc12

$$$$

  CDD

  0  0  0  0  0  0            999 V2000
M  END
> <Molecule Name>
CVD-0009824

> <SMILES>
Cn1c(nc2ccccc12)-c1ccc(NC(=O)C2CCCCC(=O)N2)cc1

$$$$

  CDD

  0  0  0  0  0  0            999 V2000
M  END
> <Molecule Name>
CVD-0009823

> <SMILES>
O=C1C(CCN1Cc1ccccc1)Nc1ncnc2[nH]cnc12

$$$$

  CDD

  0  0  0  0  0  0            999 V2000
M  END
> <Molecule Name>
CVD-0009822

> <SMILES>
O=C(CC1NC(=O)c2ccccc12)Nc1cccc(c1)-c1cn2CCCCc2n1

$$$$

  CDD

  0  0  0  0  0  0            999 V2000
M  END
> <Molecule Name>
CVD-0009821

> <SMILES>
O=C(CC1NC(=O)c2ccccc12)Nc1ccc(cc1)-c1cn2CCCCc2n1

$$$$

  CDD

  0  0  0  0  0  0            999 V2000
M  END
> <Molecule Name>
CVD-0009820

> <SMILES>
Clc1cccc(c1)-c1noc(CCNC(=O)c2ccc3C(=O)NC(=O)c3c2)n1

$$$$

  CDD

  0  0  0  0  0  0            999 V2000
M  END
> <Molecule Name>
CVD-0009819

> <SMILES>
O=C(Nc1ccc(cc1)-c1nc2ccccc2[nH]1)c1ccc2C(=O)NC(=O)c2c1

$$$$

  CDD

  0  0  0  0  0  0            999 V2000
M  END
> <Molecule Name>
CVD-0009818

> <SMILES>
Fc1ccccc1OCC(=O)Nc1ncnc2[nH]cnc12

$$$$

  CDD

  0  0  0  0  0  0            999 V2000
M  END
> <Molecule Name>
CVD-0009817

> <SMILES>
O=C(Nc1nncn1-c1ccccc1)[C@@H]1CCOc2ccc(=O)[nH]c12

$$$$

  CDD

  0  0  0  0  0  0            999 V2000
M  END
> <Molecule Name>
CVD-0009816

> <SMILES>
O=C(CCc1cc(=O)[nH]c2ccccc12)Nc1ncnc2[nH]cnc12

$$$$

  CDD

  0  0  0  0  0  0            999 V2000
M  END
> <Molecule Name>
CVD-0009815

> <SMILES>
Cn1c2ccccc2n(CCNC(=O)Nc2nncn2C2CC2)c1=O

$$$$

  CDD

  0  0  0  0  0  0            999 V2000
M  END
> <Molecule Name>
CVD-0009814

> <SMILES>
Clc1ccc2OCC[C@@H](C(=O)Nc3cnc-4[nH]cccc3-4)c2c1

$$$$

  CDD

  0  0  0  0  0  0            999 V2000
M  END
> <Molecule Name>
CVD-0009813

> <SMILES>
Clc1ccc2OCC[C@@H](C(=O)Nc3nnc-4[nH]cccc3-4)c2c1

$$$$

  CDD

  0  0  0  0  0  0            999 V2000
M  END
> <Molecule Name>
CVD-0009812

> <SMILES>
Clc1ccc2OCC[C@]3(NC(=O)N(C3=O)c3nncn3C3CC3)c2c1

$$$$

  CDD

  0  0  0  0  0  0            999 V2000
M  END
> <Molecule Name>
CVD-0009811

> <SMILES>
O=C(Cc1cncnc1)Nc1cccc(c1)[C@H]1NCCNC1=O

$$$$

  CDD

  0  0  0  0  0  0            999 V2000
M  END
> <Molecule Name>
CVD-0009810

> <SMILES>
COc1ccccc1O[C@H]1CCCC[C@H]1NC(=O)c1cc(=O)[nH]c2ccccc12

$$$$

  CDD

  0  0  0  0  0  0            999 V2000
M  END
> <Molecule Name>
CVD-0009809

> <SMILES>
Cn1c2ccccc2n(CCNC(=O)c2cc(=O)[nH]c3ccccc23)c1=O

$$$$

  CDD

  0  0  0  0  0  0            999 V2000
M  END
> <Molecule Name>
CVD-0009808

> <SMILES>
Clc1ccc2OCC[C@@H](C(=O)Nc3nncn3-c3ccccc3)c2c1

$$$$

  CDD

  0  0  0  0  0  0            999 V2000
M  END
> <Molecule Name>
CVD-0009807

> <SMILES>
O=C(Nc1cc(=O)[nH]c2ccccc12)N(CCC1CCCCC1)c1ccccc1

$$$$

  CDD

  0  0  0  0  0  0            999 V2000
M  END
> <Molecule Name>
CVD-0009806

> <SMILES>
COc1ccccc1O[C@H]1CC[C@@H]1NC(=O)c1cc(=O)[nH]c2ccccc12

$$$$

  CDD

  0  0  0  0  0  0            999 V2000
M  END
> <Molecule Name>
CVD-0009805

> <SMILES>
COc1ccccc1O[C@H]1CCC[C@@H]1NC(=O)c1cc(=O)[nH]c2ccccc12

$$$$

  CDD

  0  0  0  0  0  0            999 V2000
M  END
> <Molecule Name>
CVD-0009804

> <SMILES>
O=C(NCCOc1cccc2CCCOc12)c1cc(=O)[nH]c2ccccc12

$$$$

  CDD

  0  0  0  0  0  0            999 V2000
M  END
> <Molecule Name>
CVD-0009803

> <SMILES>
O=C(NCCOc1cccc2CCCCc12)c1cc(=O)[nH]c2ccccc12

$$$$

  CDD

  0  0  0  0  0  0            999 V2000
M  END
> <Molecule Name>
CVD-0009802

> <SMILES>
COc1ccc[n+](-c2nc3ccc(cc3[nH]2)-n2cccc2)c1CS

$$$$

  CDD

  0  0  0  0  0  0            999 V2000
M  END
> <Molecule Name>
CVD-0009801

> <SMILES>
COc1cc(C)c[n+](-c2nc3ccc(cc3[nH]2)-n2cccc2)c1CS

$$$$

  CDD

  0  0  0  0  0  0            999 V2000
M  END
> <Molecule Name>
CVD-0009800

> <SMILES>
COc1ccc[n+](-c2nc3ccccc3[nH]2)c1CS

$$$$

  CDD

  0  0  0  0  0  0            999 V2000
M  END
> <Molecule Name>
CVD-0009799

> <SMILES>
COc1ccc2nc([nH]c2c1)-[n+]1cccc(OC)c1CS

$$$$

  CDD

  0  0  0  0  0  0            999 V2000
M  END
> <Molecule Name>
CVD-0009798

> <SMILES>
COc1ccc[n+](-c2nc3ccc(OC(F)F)cc3[nH]2)c1CS

$$$$

  CDD

  0  0  0  0  0  0            999 V2000
M  END
> <Molecule Name>
CVD-0009797

> <SMILES>
COc1cc(C)c[n+](-c2nc3ccccc3[nH]2)c1CS

$$$$

  CDD

  0  0  0  0  0  0            999 V2000
M  END
> <Molecule Name>
CVD-0009796

> <SMILES>
COc1ccc2nc([nH]c2c1)-[n+]1cc(C)cc(OC)c1CS

$$$$

  CDD

  0  0  0  0  0  0            999 V2000
M  END
> <Molecule Name>
CVD-0009795

> <SMILES>
COc1cc(C)c[n+](-c2nc3ccc(OC(F)F)cc3[nH]2)c1CS

$$$$

  CDD

  0  0  0  0  0  0            999 V2000
M  END
> <Molecule Name>
CVD-0009794

> <SMILES>
COc1cc[n+](-c2nc3ccccc3[nH]2)c(CS)c1OC

$$$$

  CDD

  0  0  0  0  0  0            999 V2000
M  END
> <Molecule Name>
CVD-0009793

> <SMILES>
COc1cc[n+](-c2nc3ccccc3[nH]2)c(CS)c1

$$$$

  CDD

  0  0  0  0  0  0            999 V2000
M  END
> <Molecule Name>
CVD-0009792

> <SMILES>
COc1cc(CS)[n+](cc1C)-c1nc2ccccc2[nH]1

$$$$

  CDD

  0  0  0  0  0  0            999 V2000
M  END
> <Molecule Name>
CVD-0009791

> <SMILES>
COCCCOc1cc[n+](-c2nc3ccccc3[nH]2)c(CS)c1OC

$$$$

  CDD

  0  0  0  0  0  0            999 V2000
M  END
> <Molecule Name>
CVD-0009790

> <SMILES>
COc1ccc2nc([nH]c2c1)-[n+]1ccc(OC)c(OC)c1CS

$$$$

  CDD

  0  0  0  0  0  0            999 V2000
M  END
> <Molecule Name>
CVD-0009789

> <SMILES>
COc1cc[n+](-c2nc3ccc(cc3[nH]2)-n2cccc2)c(CS)c1OC

$$$$

  CDD

  0  0  0  0  0  0            999 V2000
M  END
> <Molecule Name>
CVD-0009788

> <SMILES>
COc1cc[n+](-c2nc3ccccc3[nH]2)c(CS)c1C

$$$$

  CDD

  0  0  0  0  0  0            999 V2000
M  END
> <Molecule Name>
CVD-0009787

> <SMILES>
COCCCOc1cc(CS)[n+](cc1C)-c1nc2ccccc2[nH]1

$$$$

  CDD

  0  0  0  0  0  0            999 V2000
M  END
> <Molecule Name>
CVD-0009786

> <SMILES>
COc1ccc2nc([nH]c2c1)-[n+]1cc(C)c(OC)cc1CS

$$$$

  CDD

  0  0  0  0  0  0            999 V2000
M  END
> <Molecule Name>
CVD-0009785

> <SMILES>
COc1cc[n+](-c2nc3ccc(OC)cc3[nH]2)c(CS)c1

$$$$

  CDD

  0  0  0  0  0  0            999 V2000
M  END
> <Molecule Name>
CVD-0009784

> <SMILES>
Cc1c(OCC(F)(F)F)cc[n+](-c2nc3ccc(cc3[nH]2)-n2cccc2)c1CS

$$$$

  CDD

  0  0  0  0  0  0            999 V2000
M  END
> <Molecule Name>
CVD-0009783

> <SMILES>
COc1c(OCC(F)(F)F)cc[n+](-c2nc3ccccc3[nH]2)c1CS

$$$$

  CDD

  0  0  0  0  0  0            999 V2000
M  END
> <Molecule Name>
CVD-0009782

> <SMILES>
COCCCOc1cc[n+](-c2nc3ccccc3[nH]2)c(CS)c1

$$$$

  CDD

  0  0  0  0  0  0            999 V2000
M  END
> <Molecule Name>
CVD-0009781

> <SMILES>
COc1cc(CS)[n+](cc1C)-c1nc2ccc(OC(F)F)cc2[nH]1

$$$$

  CDD

  0  0  0  0  0  0            999 V2000
M  END
> <Molecule Name>
CVD-0009780

> <SMILES>
Cc1c(OCC(F)(F)F)cc[n+](-c2nc3ccccc3[nH]2)c1CS

$$$$

  CDD

  0  0  0  0  0  0            999 V2000
M  END
> <Molecule Name>
CVD-0009779

> <SMILES>
FC(F)(F)COc1cc[n+](-c2nc3ccccc3[nH]2)c(CS)c1

$$$$

  CDD

  0  0  0  0  0  0            999 V2000
M  END
> <Molecule Name>
CVD-0009778

> <SMILES>
COc1ccc2nc([nH]c2c1)-[n+]1ccc(OC)c(C)c1CS

$$$$

  CDD

  0  0  0  0  0  0            999 V2000
M  END
> <Molecule Name>
CVD-0009777

> <SMILES>
Cc1c[n+](-c2nc3ccccc3[nH]2)c(CS)cc1OCC(F)(F)F

$$$$

  CDD

  0  0  0  0  0  0            999 V2000
M  END
> <Molecule Name>
CVD-0009776

> <SMILES>
COCCCOc1cc[n+](-c2nc3ccccc3[nH]2)c(CS)c1C

$$$$

  CDD

  0  0  0  0  0  0            999 V2000
M  END
> <Molecule Name>
CVD-0009775

> <SMILES>
COc1ccc2nc([nH]c2c1)-[n+]1ccc(OCC(F)(F)F)cc1CS

$$$$

  CDD

  0  0  0  0  0  0            999 V2000
M  END
> <Molecule Name>
CVD-0009774

> <SMILES>
COc1ccc2nc([nH]c2c1)-[n+]1ccc(OCC(F)(F)F)c(OC)c1CS

$$$$

  CDD

  0  0  0  0  0  0            999 V2000
M  END
> <Molecule Name>
CVD-0009773

> <SMILES>
COc1ccc2nc([nH]c2c1)-[n+]1ccc(OCC(F)(F)F)c(C)c1CS

$$$$

  CDD

  0  0  0  0  0  0            999 V2000
M  END
> <Molecule Name>
CVD-0009772

> <SMILES>
COc1cc(CS)[n+](cc1C)-c1nc2ccc(cc2[nH]1)-n1cccc1

$$$$

  CDD

  0  0  0  0  0  0            999 V2000
M  END
> <Molecule Name>
CVD-0009771

> <SMILES>
COc1ccc2nc([nH]c2c1)-[n+]1cc(C)c(OCC(F)(F)F)cc1CS

$$$$

  CDD

  0  0  0  0  0  0            999 V2000
M  END
> <Molecule Name>
CVD-0009770

> <SMILES>
COCCCOc1cc[n+](-c2nc3ccc(OC)cc3[nH]2)c(CS)c1C

$$$$

  CDD

  0  0  0  0  0  0            999 V2000
M  END
> <Molecule Name>
CVD-0009769

> <SMILES>
COc1cc[n+](-c2nc3ccc(cc3[nH]2)-n2cccc2)c(CS)c1

$$$$

  CDD

  0  0  0  0  0  0            999 V2000
M  END
> <Molecule Name>
CVD-0009768

> <SMILES>
COc1cc[n+](-c2nc3ccc(cc3[nH]2)-n2cccc2)c(CS)c1C

$$$$

  CDD

  0  0  0  0  0  0            999 V2000
M  END
> <Molecule Name>
CVD-0009767

> <SMILES>
FC(F)(F)COc1cc[n+](-c2nc3ccc(cc3[nH]2)-n2cccc2)c(CS)c1

$$$$

  CDD

  0  0  0  0  0  0            999 V2000
M  END
> <Molecule Name>
CVD-0009766

> <SMILES>
COCCCOc1cc[n+](-c2nc3ccc(cc3[nH]2)-n2cccc2)c(CS)c1

$$$$

  CDD

  0  0  0  0  0  0            999 V2000
M  END
> <Molecule Name>
CVD-0009765

> <SMILES>
Cc1c[n+](-c2nc3ccc(cc3[nH]2)-n2cccc2)c(CS)cc1OCC(F)(F)F

$$$$

  CDD

  0  0  0  0  0  0            999 V2000
M  END
> <Molecule Name>
CVD-0009764

> <SMILES>
COCCCOc1cc[n+](-c2nc3ccc(cc3[nH]2)-n2cccc2)c(CS)c1C

$$$$

  CDD

  0  0  0  0  0  0            999 V2000
M  END
> <Molecule Name>
CVD-0009763

> <SMILES>
Clc1cccc(c1)C(CCC1CCCCC1)C(=O)Nc1nc2ccccc2[nH]1

$$$$

  CDD

  0  0  0  0  0  0            999 V2000
M  END
> <Molecule Name>
CVD-0009762

> <SMILES>
COc1cc(Cl)cc(c1)C(CCC1CCCCC1)C(=O)Nc1cnccc1C

$$$$

  CDD

  0  0  0  0  0  0            999 V2000
M  END
> <Molecule Name>
CVD-0009761

> <SMILES>
Cc1ccncc1NC(=O)C(CCc1ccccc1)c1cc(Cl)cc(OC2CC(=O)N2)c1

$$$$

  CDD

  0  0  0  0  0  0            999 V2000
M  END
> <Molecule Name>
CVD-0009760

> <SMILES>
Cc1ccncc1NC(=O)C(CCC1CCCCC1)c1cc(Cl)cc(OC2CC(=O)N2)c1

$$$$

  CDD

  0  0  0  0  0  0            999 V2000
M  END
> <Molecule Name>
CVD-0009759

> <SMILES>
COc1cc(Cl)cc(CN2CCN(CC2)C(=O)c2cc(=O)[nH]c3ccccc23)c1F

$$$$

  CDD

  0  0  0  0  0  0            999 V2000
M  END
> <Molecule Name>
CVD-0009758

> <SMILES>
Fc1ccccc1CN1CCN(CC1)C(=O)c1cc(=O)[nH]c2ccccc12

$$$$

  CDD

  0  0  0  0  0  0            999 V2000
M  END
> <Molecule Name>
CVD-0009757

> <SMILES>
COc1c(Cl)cccc1OCCNC(=O)c1cc(=O)[nH]c2ccccc12

$$$$

  CDD

  0  0  0  0  0  0            999 V2000
M  END
> <Molecule Name>
CVD-0009756

> <SMILES>
C[C@@H]1C[C@@H](C(=O)Nc2nncn2C2CC2)c2cc(Cl)ccc2O1

$$$$

  CDD

  0  0  0  0  0  0            999 V2000
M  END
> <Molecule Name>
CVD-0009755

> <SMILES>
Clc1cccc(c1)[C@@H]1CC[C@H](C#N)N(c2nncn2C2CC2)C1=O

$$$$

  CDD

  0  0  0  0  0  0            999 V2000
M  END
> <Molecule Name>
CVD-0009754

> <SMILES>
Clc1cccc(c1)[C@@H]1CCCN(c2nncn2C2CC2)C1=O

$$$$

  CDD

  0  0  0  0  0  0            999 V2000
M  END
> <Molecule Name>
CVD-0009753

> <SMILES>
COc1cc2CCN([C@H](c3ccccc3)c2cc1OC)C(=O)CCl

$$$$

  CDD

  0  0  0  0  0  0            999 V2000
M  END
> <Molecule Name>
CVD-0009752

> <SMILES>
CSc1ccccc1NC(=O)CN(C)C(=O)CCl

$$$$

  CDD

  0  0  0  0  0  0            999 V2000
M  END
> <Molecule Name>
CVD-0009751

> <SMILES>
CCc1ccccc1NC(=O)CNC(=O)CCl

$$$$

  CDD

  0  0  0  0  0  0            999 V2000
M  END
> <Molecule Name>
CVD-0009750

> <SMILES>
CCOC(=O)c1c(NC(=O)CCl)scc1-c1ccco1

$$$$

  CDD

  0  0  0  0  0  0            999 V2000
M  END
> <Molecule Name>
CVD-0009749

> <SMILES>
ClCC(=O)Nc1ccc2OCC(=O)Nc2c1

$$$$

  CDD

  0  0  0  0  0  0            999 V2000
M  END
> <Molecule Name>
CVD-0009748

> <SMILES>
CN(Cc1ccc2OCCOc2c1)C(=O)CCl

$$$$

  CDD

  0  0  0  0  0  0            999 V2000
M  END
> <Molecule Name>
CVD-0009747

> <SMILES>
CNS(=O)(=O)c1cc(NC(=O)CCl)ccc1C

$$$$

  CDD

  0  0  0  0  0  0            999 V2000
M  END
> <Molecule Name>
CVD-0009746

> <SMILES>
ClCC(=O)N1CCN(CC1)[C@H](C#N)c1ccccc1

$$$$

  CDD

  0  0  0  0  0  0            999 V2000
M  END
> <Molecule Name>
CVD-0009745

> <SMILES>
ClCC(=O)NC[C@@H]1COc2ccccc2O1

$$$$

  CDD

  0  0  0  0  0  0            999 V2000
M  END
> <Molecule Name>
CVD-0009744

> <SMILES>
Fc1ccc(cc1)S(=O)(=O)c1ccc(NC(=O)CCl)cc1

$$$$

  CDD

  0  0  0  0  0  0            999 V2000
M  END
> <Molecule Name>
CVD-0009743

> <SMILES>
ClCC(=O)Nc1ccc(cc1)S(=O)(=O)N1CCCC1

$$$$

  CDD

  0  0  0  0  0  0            999 V2000
M  END
> <Molecule Name>
CVD-0009742

> <SMILES>
COc1cc(NC(=O)CCl)cc(OC)c1OC

$$$$

  CDD

  0  0  0  0  0  0            999 V2000
M  END
> <Molecule Name>
CVD-0009741

> <SMILES>
CN(CC(=O)Nc1ccc(F)cc1)C(=O)CCl

$$$$

  CDD

  0  0  0  0  0  0            999 V2000
M  END
> <Molecule Name>
CVD-0009740

> <SMILES>
ClCC(=O)Nc1ccc2OC3(CCCC3)Oc2c1

$$$$

  CDD

  0  0  0  0  0  0            999 V2000
M  END
> <Molecule Name>
CVD-0009739

> <SMILES>
COc1ccc(OC)c(c1)[C@H]1CCCN1C(=O)CCl

$$$$

  CDD

  0  0  0  0  0  0            999 V2000
M  END
> <Molecule Name>
CVD-0009738

> <SMILES>
C[C@H](NC(=O)CNC(=O)CCl)c1ccc(F)cc1

$$$$

  CDD

  0  0  0  0  0  0            999 V2000
M  END
> <Molecule Name>
CVD-0009737

> <SMILES>
CN(C[C@@H]1COc2ccccc2O1)C(=O)CCl

$$$$

  CDD

  0  0  0  0  0  0            999 V2000
M  END
> <Molecule Name>
CVD-0009736

> <SMILES>
COc1ccc(cc1)[C@@H](C#N)N1CCN(CC1)C(=O)CCl

$$$$

  CDD

  0  0  0  0  0  0            999 V2000
M  END
> <Molecule Name>
CVD-0009735

> <SMILES>
COc1cccc(NC(=O)CN(C)C(=O)CCl)c1

$$$$

  CDD

  0  0  0  0  0  0            999 V2000
M  END
> <Molecule Name>
CVD-0009734

> <SMILES>
COC(=O)[C@H]1CN(C(=O)CCl)c2ccccc2O1

$$$$

  CDD

  0  0  0  0  0  0            999 V2000
M  END
> <Molecule Name>
CVD-0009733

> <SMILES>
ClCC(=O)Nc1ccc2OCCOc2c1

$$$$

  CDD

  0  0  0  0  0  0            999 V2000
M  END
> <Molecule Name>
CVD-0009732

> <SMILES>
ClCC(=O)NC1(CCCC1)c1ccc2OCCOc2c1

$$$$

  CDD

  0  0  0  0  0  0            999 V2000
M  END
> <Molecule Name>
CVD-0009731

> <SMILES>
C[C@H](N(C)C(=O)CCl)c1cccc(NC(=O)c2ccccc2)c1

$$$$

  CDD

  0  0  0  0  0  0            999 V2000
M  END
> <Molecule Name>
CVD-0009730

> <SMILES>
ClCC(=O)NCc1cnn(c1)-c1ccccc1

$$$$

  CDD

  0  0  0  0  0  0            999 V2000
M  END
> <Molecule Name>
CVD-0009729

> <SMILES>
CCOC(=O)c1c(NC(=O)CCl)scc1-c1ccc(C)o1

$$$$

  CDD

  0  0  0  0  0  0            999 V2000
M  END
> <Molecule Name>
CVD-0009728

> <SMILES>
ClCC(=O)NCc1ccc(nc1)N1CCOCC1

$$$$

  CDD

  0  0  0  0  0  0            999 V2000
M  END
> <Molecule Name>
CVD-0009727

> <SMILES>
C[C@H]1CCCN(C1)C(=O)C1CCN(CC1)C(=O)CCl

$$$$

  CDD

  0  0  0  0  0  0            999 V2000
M  END
> <Molecule Name>
CVD-0009726

> <SMILES>
C[C@@H](N(C)C(=O)CCl)c1nc2ccccc2s1

$$$$

  CDD

  0  0  0  0  0  0            999 V2000
M  END
> <Molecule Name>
CVD-0009725

> <SMILES>
Cn1cc(cc1C(=O)NC(=O)CCl)S(=O)(=O)N1CCOCC1

$$$$

  CDD

  0  0  0  0  0  0            999 V2000
M  END
> <Molecule Name>
CVD-0009724

> <SMILES>
C[C@H]1CN(C[C@@H](C)O1)c1ccc(CNC(=O)CCl)cc1F

$$$$

  CDD

  0  0  0  0  0  0            999 V2000
M  END
> <Molecule Name>
CVD-0009723

> <SMILES>
CC(=O)c1cc2OCOc2cc1NC(=O)CCl

$$$$

  CDD

  0  0  0  0  0  0            999 V2000
M  END
> <Molecule Name>
CVD-0009722

> <SMILES>
ClCC(=O)Nc1cccc(c1)S(=O)(=O)\N=C1/CCCCCN1

$$$$

  CDD

  0  0  0  0  0  0            999 V2000
M  END
> <Molecule Name>
CVD-0009721

> <SMILES>
C[C@@H](NC(=O)c1ccccc1NC(=O)CCl)c1ccccc1

$$$$

  CDD

  0  0  0  0  0  0            999 V2000
M  END
> <Molecule Name>
CVD-0009720

> <SMILES>
CC(C)(C)NC(=O)CN1CCN(CC1)C(=O)CCl

$$$$

  CDD

  0  0  0  0  0  0            999 V2000
M  END
> <Molecule Name>
CVD-0009719

> <SMILES>
Cc1cc(NC(=O)CCl)n(n1)-c1nc(C)cc(C)n1

$$$$

  CDD

  0  0  0  0  0  0            999 V2000
M  END
> <Molecule Name>
CVD-0009718

> <SMILES>
ClCC(=O)Nc1cc2OCCOc2cc1Br

$$$$

  CDD

  0  0  0  0  0  0            999 V2000
M  END
> <Molecule Name>
CVD-0009717

> <SMILES>
CCN(Cc1ccc2OCCOc2c1)C(=O)CCl

$$$$

  CDD

  0  0  0  0  0  0            999 V2000
M  END
> <Molecule Name>
CVD-0009716

> <SMILES>
Fc1ccc(NC(=O)CN2CCN(CC2)C(=O)CCl)cc1

$$$$

  CDD

  0  0  0  0  0  0            999 V2000
M  END
> <Molecule Name>
CVD-0009715

> <SMILES>
CN(C)S(=O)(=O)c1ccc2N(CCCc2c1)C(=O)CCl

$$$$

  CDD

  0  0  0  0  0  0            999 V2000
M  END
> <Molecule Name>
CVD-0009714

> <SMILES>
ClCC(=O)NCCc1cnn(c1)-c1ccccc1

$$$$

  CDD

  0  0  0  0  0  0            999 V2000
M  END
> <Molecule Name>
CVD-0009713

> <SMILES>
COc1ccc(NC(=O)CCl)cc1S(=O)(=O)N1CCOCC1

$$$$

  CDD

  0  0  0  0  0  0            999 V2000
M  END
> <Molecule Name>
CVD-0009712

> <SMILES>
CC(C)c1nc(C)cc(n1)N1CCN(CC1)C(=O)CCl

$$$$

  CDD

  0  0  0  0  0  0            999 V2000
M  END
> <Molecule Name>
CVD-0009711

> <SMILES>
Cc1c(C)n(Cc2ccco2)c(NC(=O)CCl)c1C#N

$$$$

  CDD

  0  0  0  0  0  0            999 V2000
M  END
> <Molecule Name>
CVD-0009710

> <SMILES>
Fc1ccc(cc1)[C@H]1CN(CCO1)C(=O)CCl

$$$$

  CDD

  0  0  0  0  0  0            999 V2000
M  END
> <Molecule Name>
CVD-0009709

> <SMILES>
ClCC(=O)N(C[C@@H]1CCCO1)[C@H]1CCS(=O)(=O)C1

$$$$

  CDD

  0  0  0  0  0  0            999 V2000
M  END
> <Molecule Name>
CVD-0009708

> <SMILES>
ClCC(=O)Nc1ccc2OC3(CCCCC3)Oc2c1

$$$$

  CDD

  0  0  0  0  0  0            999 V2000
M  END
> <Molecule Name>
CVD-0009707

> <SMILES>
ClCC(=O)NCc1ccccc1CS(=O)(=O)N1CCOCC1

$$$$

  CDD

  0  0  0  0  0  0            999 V2000
M  END
> <Molecule Name>
CVD-0009706

> <SMILES>
Cc1nc(C#N)c(o1)N1CCN(CC1)C(=O)CCl

$$$$

  CDD

  0  0  0  0  0  0            999 V2000
M  END
> <Molecule Name>
CVD-0009705

> <SMILES>
CCc1ccccc1NC(=O)CN1CCN(CC1)C(=O)CCl

$$$$

  CDD

  0  0  0  0  0  0            999 V2000
M  END
> <Molecule Name>
CVD-0009704

> <SMILES>
Cc1nc(no1)C1(CCCCC1)NC(=O)CCl

$$$$

  CDD

  0  0  0  0  0  0            999 V2000
M  END
> <Molecule Name>
CVD-0009703

> <SMILES>
Cc1noc(C)c1S(=O)(=O)N1CCN(CC1)C(=O)CCl

$$$$

  CDD

  0  0  0  0  0  0            999 V2000
M  END
> <Molecule Name>
CVD-0009702

> <SMILES>
Cc1nn(Cc2ccccc2)c(C)c1CNC(=O)CCl

$$$$

  CDD

  0  0  0  0  0  0            999 V2000
M  END
> <Molecule Name>
CVD-0009701

> <SMILES>
ClCC(=O)Nc1ccc(cc1)S(=O)(=O)\N=C1/CCCCCN1

$$$$

  CDD

  0  0  0  0  0  0            999 V2000
M  END
> <Molecule Name>
CVD-0009700

> <SMILES>
ClCC(=O)Nc1ccc2OCCCOc2c1

$$$$

  CDD

  0  0  0  0  0  0            999 V2000
M  END
> <Molecule Name>
CVD-0009699

> <SMILES>
Fc1ccc(NC(=O)CNC(=O)CCl)cc1F

$$$$

  CDD

  0  0  0  0  0  0            999 V2000
M  END
> <Molecule Name>
CVD-0009698

> <SMILES>
ClCC(=O)N1CCC[C@@H]1c1ccc2OCCCOc2c1

$$$$

  CDD

  0  0  0  0  0  0            999 V2000
M  END
> <Molecule Name>
CVD-0009697

> <SMILES>
Cc1ccc(NC(=O)CN2CCN(CC2)C(=O)CCl)cc1

$$$$

  CDD

  0  0  0  0  0  0            999 V2000
M  END
> <Molecule Name>
CVD-0009696

> <SMILES>
CN(C1CCCCC1)S(=O)(=O)c1ccccc1NC(=O)CCl

$$$$

  CDD

  0  0  0  0  0  0            999 V2000
M  END
> <Molecule Name>
CVD-0009695

> <SMILES>
ClCC(=O)Nc1cccc(c1)S(=O)(=O)\N=C1/CCCN1

$$$$

  CDD

  0  0  0  0  0  0            999 V2000
M  END
> <Molecule Name>
CVD-0009694

> <SMILES>
ClCC(=O)N1CCC(CC1)NC(=O)CCc1ccccc1

$$$$

  CDD

  0  0  0  0  0  0            999 V2000
M  END
> <Molecule Name>
CVD-0009693

> <SMILES>
ClCC(=O)NCC1(CCCC1)c1ccc2OCCOc2c1

$$$$

  CDD

  0  0  0  0  0  0            999 V2000
M  END
> <Molecule Name>
CVD-0009692

> <SMILES>
CC(=O)NCc1ccc(cc1)S(=O)(=O)NC(=O)CCl

$$$$

  CDD

  0  0  0  0  0  0            999 V2000
M  END
> <Molecule Name>
CVD-0009691

> <SMILES>
Fc1cccc(NC(=O)CN2CCN(CC2)C(=O)CCl)c1

$$$$

  CDD

  0  0  0  0  0  0            999 V2000
M  END
> <Molecule Name>
CVD-0009690

> <SMILES>
ClCC(=O)N(Cc1cccs1)c1ccc2OCCOc2c1

$$$$

  CDD

  0  0  0  0  0  0            999 V2000
M  END
> <Molecule Name>
CVD-0009689

> <SMILES>
ClCC(=O)N1CCN(CC1)c1oc(nc1C#N)-c1ccco1

$$$$

  CDD

  0  0  0  0  0  0            999 V2000
M  END
> <Molecule Name>
CVD-0009688

> <SMILES>
Clc1ccc2OCC[C@@H](C(=O)Nc3cncn3C3CC3)c2c1

$$$$

  CDD

  0  0  0  0  0  0            999 V2000
M  END
> <Molecule Name>
CVD-0009687

> <SMILES>
O=C(Nc1nncn1C1COC1)[C@@H]1CCOc2ccccc12

$$$$

  CDD

  0  0  0  0  0  0            999 V2000
M  END
> <Molecule Name>
CVD-0009686

> <SMILES>
CC(C)(C)n1cnnc1NC(=O)[C@@H]1CCOc2ccccc12

$$$$

  CDD

  0  0  0  0  0  0            999 V2000
M  END
> <Molecule Name>
CVD-0009685

> <SMILES>
CC(C)Cc1ccccc1CC[C@]1(CCOc2ccc(Cl)cc12)C(=O)Nc1nncn1C1CC1

$$$$

  CDD

  0  0  0  0  0  0            999 V2000
M  END
> <Molecule Name>
CVD-0009684

> <SMILES>
Clc1ccc2OCC[C@@](CCc3ccccc3CC3CC3)(C(=O)Nc3nncn3C3CC3)c2c1

$$$$

  CDD

  0  0  0  0  0  0            999 V2000
M  END
> <Molecule Name>
CVD-0009683

> <SMILES>
Clc1ccc2OCCC(C(=O)Nc3nnc4CCCCn34)c2c1

$$$$

  CDD

  0  0  0  0  0  0            999 V2000
M  END
> <Molecule Name>
CVD-0009682

> <SMILES>
Clc1ccc2OCCC(C(=O)Nc3nnc4CCCn34)c2c1

$$$$

  CDD

  0  0  0  0  0  0            999 V2000
M  END
> <Molecule Name>
CVD-0009681

> <SMILES>
Fc1cccc(CC[C@]2(CCOc3ccc(Cl)cc23)C(=O)Nc2nncn2C2CC2)c1

$$$$

  CDD

  0  0  0  0  0  0            999 V2000
M  END
> <Molecule Name>
CVD-0009680

> <SMILES>
Fc1ccc(CC[C@]2(CCOc3ccc(Cl)cc23)C(=O)Nc2nncn2C2CC2)cc1

$$$$

  CDD

  0  0  0  0  0  0            999 V2000
M  END
> <Molecule Name>
CVD-0009679

> <SMILES>
Clc1ccc2OCC[C@@](CCc3ccccc3)(C(=O)Nc3nncn3C3CC3)c2c1

$$$$

  CDD

  0  0  0  0  0  0            999 V2000
M  END
> <Molecule Name>
CVD-0009678

> <SMILES>
Clc1ccc2OCC[C@@](CCC3CCCCC3)(C(=O)Nc3nncn3C3CC3)c2c1

$$$$

  CDD

  0  0  0  0  0  0            999 V2000
M  END
> <Molecule Name>
CVD-0009677

> <SMILES>
Clc1ccc2OCC[C@@H](C(=O)Nc3nnc(s3)C3CC3)c2c1

$$$$

  CDD

  0  0  0  0  0  0            999 V2000
M  END
> <Molecule Name>
CVD-0009676

> <SMILES>
CS(=O)(=O)Nc1cc(Cl)cc2[C@@H](CCOc12)C(=O)Nc1nncn1C1CC1

$$$$

  CDD

  0  0  0  0  0  0            999 V2000
M  END
> <Molecule Name>
CVD-0009675

> <SMILES>
Clc1cc(OC2COC2)c2OCC[C@@H](C(=O)Nc3nncn3C3CC3)c2c1

$$$$

  CDD

  0  0  0  0  0  0            999 V2000
M  END
> <Molecule Name>
CVD-0009674

> <SMILES>
CC(C(N)=O)c1cc(Cl)cc2[C@@H](CCOc12)C(=O)Nc1nncn1C1CC1

$$$$

  CDD

  0  0  0  0  0  0            999 V2000
M  END
> <Molecule Name>
CVD-0009673

> <SMILES>
Clc1cc(C2COC2)c2OCC[C@@H](C(=O)Nc3nncn3C3CC3)c2c1

$$$$

  CDD

  0  0  0  0  0  0            999 V2000
M  END
> <Molecule Name>
CVD-0009672

> <SMILES>
Cc1ccncc1NC(=O)Cc1cc(Cl)cc(NS(N)(=O)=O)c1

$$$$

  CDD

  0  0  0  0  0  0            999 V2000
M  END
> <Molecule Name>
CVD-0009671

> <SMILES>
Cc1ccncc1NC(=O)Cc1cc(Cl)cc(NS(C)(=O)=O)c1

$$$$

  CDD

  0  0  0  0  0  0            999 V2000
M  END
> <Molecule Name>
CVD-0009670

> <SMILES>
Cc1ccncc1NC(=O)Cc1cc(Cl)cc(OC2COC2)c1

$$$$

  CDD

  0  0  0  0  0  0            999 V2000
M  END
> <Molecule Name>
CVD-0009669

> <SMILES>
CC(C(N)=O)c1cc(Cl)cc(CC(=O)Nc2cnccc2C)c1

$$$$

  CDD

  0  0  0  0  0  0            999 V2000
M  END
> <Molecule Name>
CVD-0009668

> <SMILES>
Cc1ccncc1NC(=O)Cc1cc(Cl)cc(c1)C1COC1

$$$$

  CDD

  0  0  0  0  0  0            999 V2000
M  END
> <Molecule Name>
CVD-0009667

> <SMILES>
CC(=O)NCCc1c[nH]c2c(C(=O)Cc3c[nH]c4ncccc34)c(CCNS(C)(=O)=O)ccc12

$$$$

  CDD

  0  0  0  0  0  0            999 V2000
M  END
> <Molecule Name>
CVD-0009666

> <SMILES>
CC(C)CC(=O)Nc1ccc(nc1)-n1cnc(c1)C(=O)NC1CCCCC1

$$$$

  CDD

  0  0  0  0  0  0            999 V2000
M  END
> <Molecule Name>
CVD-0009665

> <SMILES>
Nc1ccc(NC(=O)C2(CCCC2)S(=O)(=O)c2ccc(Cl)cc2)cn1

$$$$

  CDD

  0  0  0  0  0  0            999 V2000
M  END
> <Molecule Name>
CVD-0009664

> <SMILES>
Clc1cccc(CNC(=O)Cn2c3cccnc3n(C3CCCCC3)c2=O)c1

$$$$

  CDD

  0  0  0  0  0  0            999 V2000
M  END
> <Molecule Name>
CVD-0009663

> <SMILES>
CCc1ccc2oc(Br)c(CC(=O)Nc3cccnc3)c2c1

$$$$

  CDD

  0  0  0  0  0  0            999 V2000
M  END
> <Molecule Name>
CVD-0009662

> <SMILES>
O=C(Cn1c2cccnc2n(-c2ccccc2)c1=O)NCc1ccccc1

$$$$

  CDD

  0  0  0  0  0  0            999 V2000
M  END
> <Molecule Name>
CVD-0009661

> <SMILES>
Cc1ccc(Cn2c3cccnc3n(CCNC(=O)Cc3cccc(Cl)c3)c2=O)cc1

$$$$

  CDD

  0  0  0  0  0  0            999 V2000
M  END
> <Molecule Name>
CVD-0009660

> <SMILES>
CCC[C@H](NC(=O)Cn1c2cccnc2n(Cc2ccc(C)cc2)c(=O)c1=O)c1cccs1

$$$$

  CDD

  0  0  0  0  0  0            999 V2000
M  END
> <Molecule Name>
CVD-0009659

> <SMILES>
COc1cccc(c1)C1(CCCC1)C(=O)Nc1ccc(N)nc1

$$$$

  CDD

  0  0  0  0  0  0            999 V2000
M  END
> <Molecule Name>
CVD-0009658

> <SMILES>
Nc1ccc(NC(=O)C2(CCCC2)NC(=O)NCc2ccccc2)cn1

$$$$

  CDD

  0  0  0  0  0  0            999 V2000
M  END
> <Molecule Name>
CVD-0009657

> <SMILES>
O=C(Cn1c2cccnc2n(Cc2ccccc2)c(=O)c1=O)NC1CCCCC1

$$$$

  CDD

  0  0  0  0  0  0            999 V2000
M  END
> <Molecule Name>
CVD-0009656

> <SMILES>
Cc1ccc(CNC(=O)Cn2c3cccnc3n(C3CCCCC3)c2=O)cc1

$$$$

  CDD

  0  0  0  0  0  0            999 V2000
M  END
> <Molecule Name>
CVD-0009655

> <SMILES>
CCc1ccccc1NC(=O)COc1ccc(NC(=O)C2CC2)cn1

$$$$

  CDD

  0  0  0  0  0  0            999 V2000
M  END
> <Molecule Name>
CVD-0009654

> <SMILES>
Cc1ccc(Cn2c3cccnc3c(=O)n(Cc3ccccn3)c2=O)cc1

$$$$

  CDD

  0  0  0  0  0  0            999 V2000
M  END
> <Molecule Name>
CVD-0009653

> <SMILES>
C[C@H]1C=C(C)C[C@H]([C@H]1C(O)=O)C(=O)Nc1cccnc1

$$$$

  CDD

  0  0  0  0  0  0            999 V2000
M  END
> <Molecule Name>
CVD-0009652

> <SMILES>
O=C(CCN1C(=O)c2ccccc2S1(=O)=O)Nc1cnc2ccccc2c1

$$$$

  CDD

  0  0  0  0  0  0            999 V2000
M  END
> <Molecule Name>
CVD-0009651

> <SMILES>
O=C(Cn1c2cccnc2n(C2CCCCC2)c1=O)NCc1ccccc1

$$$$

  CDD

  0  0  0  0  0  0            999 V2000
M  END
> <Molecule Name>
CVD-0009650

> <SMILES>
N[C@H]1CCC[C@@H](C1)C(=O)Nc1ccc(NC(=O)C2CC2)nc1

$$$$

  CDD

  0  0  0  0  0  0            999 V2000
M  END
> <Molecule Name>
CVD-0009649

> <SMILES>
N[C@@H](Cc1ccccc1)C(=O)Nc1ccc(NC(=O)C2CC2)nc1

$$$$

  CDD

  0  0  0  0  0  0            999 V2000
M  END
> <Molecule Name>
CVD-0009648

> <SMILES>
Fc1ccc(cc1)S(=O)(=O)NCc1ccc(cc1)C(=O)Nc1cccnc1

$$$$

  CDD

  0  0  0  0  0  0            999 V2000
M  END
> <Molecule Name>
CVD-0009647

> <SMILES>
O=C(Nc1cccnc1)C1c2ccccc2Oc2ccccc12

$$$$

  CDD

  0  0  0  0  0  0            999 V2000
M  END
> <Molecule Name>
CVD-0009646

> <SMILES>
Nc1ccc(NC(=O)c2ccc(CNC(=O)C3CCCC3)cc2)cn1

$$$$

  CDD

  0  0  0  0  0  0            999 V2000
M  END
> <Molecule Name>
CVD-0009645

> <SMILES>
CC(C)CC(=O)Nc1ccc(nc1)N1CCC(CC1)C(=O)NC1CCCCC1

$$$$

  CDD

  0  0  0  0  0  0            999 V2000
M  END
> <Molecule Name>
CVD-0009644

> <SMILES>
CC(C)(C)c1ccc(cc1)S(=O)(=O)NCc1ccc(cc1)C(=O)Nc1cccnc1

$$$$

  CDD

  0  0  0  0  0  0            999 V2000
M  END
> <Molecule Name>
CVD-0009643

> <SMILES>
Nc1ccc(NC(=O)[C@@H]2CCCO[C@@H]2c2ccccc2)cn1

$$$$

  CDD

  0  0  0  0  0  0            999 V2000
M  END
> <Molecule Name>
CVD-0009642

> <SMILES>
COc1ccccc1C[C@@H](C)CC(=O)Nc1ccc(N)nc1

$$$$

  CDD

  0  0  0  0  0  0            999 V2000
M  END
> <Molecule Name>
CVD-0009641

> <SMILES>
Cc1cccc(CNC(=O)Cn2c3cccnc3n(C3CCCCC3)c2=O)c1

$$$$

  CDD

  0  0  0  0  0  0            999 V2000
M  END
> <Molecule Name>
CVD-0009640

> <SMILES>
Cc1sc2nc(CSCC(=O)Nc3cccnc3)[nH]c(=O)c2c1C

$$$$

  CDD

  0  0  0  0  0  0            999 V2000
M  END
> <Molecule Name>
CVD-0009639

> <SMILES>
O=C(Cn1c2cccnc2n2nc(cc2c1=O)C1CC1)NC1CCCCC1

$$$$

  CDD

  0  0  0  0  0  0            999 V2000
M  END
> <Molecule Name>
CVD-0009638

> <SMILES>
COc1cc(ccc1C)C1(CCCC1)C(=O)Nc1ccc(N)nc1

$$$$

  CDD

  0  0  0  0  0  0            999 V2000
M  END
> <Molecule Name>
CVD-0009637

> <SMILES>
Cc1ccc(cc1)-n1c2ncccc2n(CC(=O)NCc2ccccc2C)c1=O

$$$$

  CDD

  0  0  0  0  0  0            999 V2000
M  END
> <Molecule Name>
CVD-0009636

> <SMILES>
O=C(CCN1C(=O)[C@H]2CCCC[C@H]2C1=O)Nc1cnc2ccccc2c1

$$$$

  CDD

  0  0  0  0  0  0            999 V2000
M  END
> <Molecule Name>
CVD-0009635

> <SMILES>
Cc1ccc(CNC(=O)Cn2c3cccnc3n(Cc3ccc(C)cc3)c(=O)c2=O)cc1

$$$$

  CDD

  0  0  0  0  0  0            999 V2000
M  END
> <Molecule Name>
CVD-0009634

> <SMILES>
O=C(CCC(=O)N1Cc2ccccc2Oc2ncccc12)NCCCc1ccccc1

$$$$

  CDD

  0  0  0  0  0  0            999 V2000
M  END
> <Molecule Name>
CVD-0009633

> <SMILES>
Cc1cc(C)cc(NC(=O)Cn2c3cccnc3c(=O)n(Cc3cccs3)c2=O)c1

$$$$

  CDD

  0  0  0  0  0  0            999 V2000
M  END
> <Molecule Name>
CVD-0009632

> <SMILES>
Cc1ccc(cc1)[C@H](N)C(=O)Nc1ccc(NC(=O)C2CC2)nc1

$$$$

  CDD

  0  0  0  0  0  0            999 V2000
M  END
> <Molecule Name>
CVD-0009631

> <SMILES>
CSc1ccc(CNC(=O)Cn2c3cccnc3n(C3CCCCC3)c2=O)cc1

$$$$

  CDD

  0  0  0  0  0  0            999 V2000
M  END
> <Molecule Name>
CVD-0009630

> <SMILES>
Cc1ccc(Cn2c3cccnc3n(CCNC(=O)Cc3ccccc3Cl)c2=O)cc1

$$$$

  CDD

  0  0  0  0  0  0            999 V2000
M  END
> <Molecule Name>
CVD-0009629

> <SMILES>
CCc1ccccc1NC(=O)Cn1c2cccnc2c(=O)n(Cc2cccs2)c1=O

$$$$

  CDD

  0  0  0  0  0  0            999 V2000
M  END
> <Molecule Name>
CVD-0009628

> <SMILES>
Cc1cccc(NC(=O)Cn2c3cccnc3n3nc(cc3c2=O)C2CC2)c1

$$$$

  CDD

  0  0  0  0  0  0            999 V2000
M  END
> <Molecule Name>
CVD-0009627

> <SMILES>
O=C(CCC1CCNCC1)NCc1ccc(cc1)C(=O)Nc1cccnc1

$$$$

  CDD

  0  0  0  0  0  0            999 V2000
M  END
> <Molecule Name>
CVD-0009626

> <SMILES>
Cc1ccc(C)c(NC(=O)Cn2c3cccnc3c(=O)n(Cc3cccs3)c2=O)c1

$$$$

  CDD

  0  0  0  0  0  0            999 V2000
M  END
> <Molecule Name>
CVD-0009625

> <SMILES>
Cc1ccc(cc1)C1(CCOCC1)C(=O)Nc1ccc(N)nc1

$$$$

  CDD

  0  0  0  0  0  0            999 V2000
M  END
> <Molecule Name>
CVD-0009624

> <SMILES>
Cc1ccc(cc1)-n1c2ncccc2n(CC(=O)NCc2ccccc2)c1=O

$$$$

  CDD

  0  0  0  0  0  0            999 V2000
M  END
> <Molecule Name>
CVD-0009623

> <SMILES>
Cc1ccc(Cn2c3ncccc3n(CC(=O)NC3CCCCCCC3)c(=O)c2=O)cc1

$$$$

  CDD

  0  0  0  0  0  0            999 V2000
M  END
> <Molecule Name>
CVD-0009622

> <SMILES>
O=C(Cn1c2cccnc2n(-c2ccccc2)c1=O)NCC1CCCCC1

$$$$

  CDD

  0  0  0  0  0  0            999 V2000
M  END
> <Molecule Name>
CVD-0009621

> <SMILES>
O=C(CC1(Cn2cnnn2)CCCCC1)Nc1cccnc1

$$$$

  CDD

  0  0  0  0  0  0            999 V2000
M  END
> <Molecule Name>
CVD-0009620

> <SMILES>
Oc1ccncc1NC(=O)[C@H]1SCCc2sccc12

$$$$

  CDD

  0  0  0  0  0  0            999 V2000
M  END
> <Molecule Name>
CVD-0009619

> <SMILES>
Clc1ccccc1CNC(=O)Cn1c2cccnc2n(C2CCCCC2)c1=O

$$$$

  CDD

  0  0  0  0  0  0            999 V2000
M  END
> <Molecule Name>
CVD-0009618

> <SMILES>
Cc1cccc(Cn2c3cccnc3c(=O)n(Cc3ccccn3)c2=O)c1

$$$$

  CDD

  0  0  0  0  0  0            999 V2000
M  END
> <Molecule Name>
CVD-0009617

> <SMILES>
COc1ccc(Cn2c(=O)n(CC(=O)N3CCC(Cc4ccccc4)CC3)c3cccnc3c2=O)cc1

$$$$

  CDD

  0  0  0  0  0  0            999 V2000
M  END
> <Molecule Name>
CVD-0009616

> <SMILES>
O=C(CCC(=O)N1Cc2ccccc2Oc2ncccc12)NCCC1=CCCCC1

$$$$

  CDD

  0  0  0  0  0  0            999 V2000
M  END
> <Molecule Name>
CVD-0009615

> <SMILES>
Cc1ccc2N(CC(=O)Nc3cccnc3)C(=O)C(C)(C)c2c1

$$$$

  CDD

  0  0  0  0  0  0            999 V2000
M  END
> <Molecule Name>
CVD-0009614

> <SMILES>
Fc1cccc(CNC(=O)Cn2c3cccnc3n(C3CCCCC3)c2=O)c1

$$$$

  CDD

  0  0  0  0  0  0            999 V2000
M  END
> <Molecule Name>
CVD-0009613

> <SMILES>
CCc1cccc(NC(=O)Cn2c3cccnc3n3nc(cc3c2=O)C2CC2)c1

$$$$

  CDD

  0  0  0  0  0  0            999 V2000
M  END
> <Molecule Name>
CVD-0009612

> <SMILES>
Cc1ccc(CNC(=O)Cn2c3cccnc3n(C3CCCC3)c2=O)cc1

$$$$

  CDD

  0  0  0  0  0  0            999 V2000
M  END
> <Molecule Name>
CVD-0009611

> <SMILES>
Cc1ccc(Cn2c3cccnc3n(CCNC(=O)c3cccc(c3)C#N)c2=O)cc1

$$$$

  CDD

  0  0  0  0  0  0            999 V2000
M  END
> <Molecule Name>
CVD-0009610

> <SMILES>
Cc1cccc(Cn2c3cccnc3n(CCNC(=O)c3cccc(c3)C#N)c2=O)c1

$$$$

  CDD

  0  0  0  0  0  0            999 V2000
M  END
> <Molecule Name>
CVD-0009609

> <SMILES>
C[C@H](NC(=O)Cn1c2cccnc2n(Cc2ccc(C)cc2)c(=O)c1=O)c1ccccc1

$$$$

  CDD

  0  0  0  0  0  0            999 V2000
M  END
> <Molecule Name>
CVD-0009608

> <SMILES>
Nc1ccccc1CCC(=O)Nc1ccc(NC(=O)C2CC2)nc1

$$$$

  CDD

  0  0  0  0  0  0            999 V2000
M  END
> <Molecule Name>
CVD-0009607

> <SMILES>
Cc1ccc(C(=O)Cn2c3cccnc3c(=O)n(Cc3ccccn3)c2=O)c(C)c1

$$$$

  CDD

  0  0  0  0  0  0            999 V2000
M  END
> <Molecule Name>
CVD-0009606

> <SMILES>
C[C@@H](CC(=O)Nc1ccc(NC(=O)C2CC2)nc1)C1CCNCC1

$$$$

  CDD

  0  0  0  0  0  0            999 V2000
M  END
> <Molecule Name>
CVD-0009605

> <SMILES>
O=C(CCC1CCNCC1)Nc1ccc(cc1)C(=O)Nc1cccnc1

$$$$

  CDD

  0  0  0  0  0  0            999 V2000
M  END
> <Molecule Name>
CVD-0009604

> <SMILES>
O=C(CCN1C(=O)c2ccccc2C1=O)Nc1cccnc1NC1CCCCC1

$$$$

  CDD

  0  0  0  0  0  0            999 V2000
M  END
> <Molecule Name>
CVD-0009603

> <SMILES>
Cc1ccc(CNC(=O)Cn2c3cccnc3n(-c3ccccc3)c2=O)cc1

$$$$

  CDD

  0  0  0  0  0  0            999 V2000
M  END
> <Molecule Name>
CVD-0009602

> <SMILES>
O=C(Nc1cnc2ccccc2c1)c1ccc(cc1)S(=O)(=O)N1CCc2ccccc12

$$$$

  CDD

  0  0  0  0  0  0            999 V2000
M  END
> <Molecule Name>
CVD-0009601

> <SMILES>
O=c1n(Cc2cccc3ccccc23)c2cccnc2c(=O)n1Cc1ccc2OCOc2c1

$$$$

  CDD

  0  0  0  0  0  0            999 V2000
M  END
> <Molecule Name>
CVD-0009600

> <SMILES>
O=C(Nc1cccnc1)[C@@H](N1Cc2ccccc2C1=O)c1ccccc1

$$$$

  CDD

  0  0  0  0  0  0            999 V2000
M  END
> <Molecule Name>
CVD-0009599

> <SMILES>
CC(C)(C)C1CCC2(CC1)NC(=O)N(CC(=O)Nc1cccnc1Cl)C2=O

$$$$

  CDD

  0  0  0  0  0  0            999 V2000
M  END
> <Molecule Name>
CVD-0009598

> <SMILES>
CC(C)[C@H](C(=O)Nc1ccc(N)nc1)S(=O)(=O)C1CCCCC1

$$$$

  CDD

  0  0  0  0  0  0            999 V2000
M  END
> <Molecule Name>
CVD-0009597

> <SMILES>
Cc1ccc(CNc2ncccc2NC(=O)CCN2C(=O)c3ccccc3C2=O)cc1

$$$$

  CDD

  0  0  0  0  0  0            999 V2000
M  END
> <Molecule Name>
CVD-0009596

> <SMILES>
Fc1ccccc1CNC(=O)Cn1c2cccnc2n(C2CCCCC2)c1=O

$$$$

  CDD

  0  0  0  0  0  0            999 V2000
M  END
> <Molecule Name>
CVD-0009595

> <SMILES>
O=C(Nc1cccnc1)C1(CCCC1)c1ccc2OCCOc2c1

$$$$

  CDD

  0  0  0  0  0  0            999 V2000
M  END
> <Molecule Name>
CVD-0009594

> <SMILES>
CSc1ccc(CCNC(=O)CCC(=O)N2Cc3ccccc3Oc3ncccc23)cc1

$$$$

  CDD

  0  0  0  0  0  0            999 V2000
M  END
> <Molecule Name>
CVD-0009593

> <SMILES>
Cc1ccc(cc1)S(=O)(=O)N1CCC[C@H](C1)C(=O)Nc1cccnc1

$$$$

  CDD

  0  0  0  0  0  0            999 V2000
M  END
> <Molecule Name>
CVD-0009592

> <SMILES>
Cc1ccc(cc1)-n1c2ncccc2n(CC(=O)NCc2cccc(F)c2)c1=O

$$$$

  CDD

  0  0  0  0  0  0            999 V2000
M  END
> <Molecule Name>
CVD-0009591

> <SMILES>
Cc1ccc(CNC(=O)Cn2c3cccnc3c(=O)n(Cc3ccccc3)c2=O)cc1

$$$$

  CDD

  0  0  0  0  0  0            999 V2000
M  END
> <Molecule Name>
CVD-0009590

> <SMILES>
Brc1ccc(CNC(=O)Cn2c3cccnc3n(-c3ccccc3)c2=O)cc1

$$$$

  CDD

  0  0  0  0  0  0            999 V2000
M  END
> <Molecule Name>
CVD-0009589

> <SMILES>
CCc1ccc(cc1)C(=O)Cn1c2cccnc2c(=O)n(Cc2ccccn2)c1=O

$$$$

  CDD

  0  0  0  0  0  0            999 V2000
M  END
> <Molecule Name>
CVD-0009588

> <SMILES>
O=C(Cn1c2cccnc2c(=O)n(Cc2ccccc2)c1=O)Nc1cccc2ccccc12

$$$$

  CDD

  0  0  0  0  0  0            999 V2000
M  END
> <Molecule Name>
CVD-0009587

> <SMILES>
Cc1ccc(cc1)-n1c2ncccc2n(CC(=O)NCc2ccc(F)cc2)c1=O

$$$$

  CDD

  0  0  0  0  0  0            999 V2000
M  END
> <Molecule Name>
CVD-0009586

> <SMILES>
Clc1ccc(CNC(=O)Cn2c3cccnc3n(C3CCCCC3)c2=O)cc1

$$$$

  CDD

  0  0  0  0  0  0            999 V2000
M  END
> <Molecule Name>
CVD-0009585

> <SMILES>
O=C(Cn1c2cccnc2c(=O)n(Cc2cccs2)c1=O)NC1CCCCC1

$$$$

  CDD

  0  0  0  0  0  0            999 V2000
M  END
> <Molecule Name>
CVD-0009584

> <SMILES>
CCCCN1[C@H]([C@@H](CCC1=O)C(=O)Nc1ccc(N)nc1)c1ccccc1OC

$$$$

  CDD

  0  0  0  0  0  0            999 V2000
M  END
> <Molecule Name>
CVD-0009583

> <SMILES>
Cc1ccc(C)c(Cn2c3cccnc3c(=O)n(Cc3ccc4OCOc4c3)c2=O)c1

$$$$

  CDD

  0  0  0  0  0  0            999 V2000
M  END
> <Molecule Name>
CVD-0009582

> <SMILES>
Cc1ccc(cc1)-n1c2ncccc2n(CC(=O)NCc2ccccc2F)c1=O

$$$$

  CDD

  0  0  0  0  0  0            999 V2000
M  END
> <Molecule Name>
CVD-0009581

> <SMILES>
Cc1ccc(C)c(Cn2c3cccnc3c(=O)n(Cc3cccnc3)c2=O)c1

$$$$

  CDD

  0  0  0  0  0  0            999 V2000
M  END
> <Molecule Name>
CVD-0009580

> <SMILES>
O=c1n(Cc2cccc3ccccc23)c2cccnc2c(=O)n1Cc1ccccn1

$$$$

  CDD

  0  0  0  0  0  0            999 V2000
M  END
> <Molecule Name>
CVD-0009579

> <SMILES>
Cc1ccc(cc1)[C@H]1OCCC[C@H]1C(=O)Nc1ccc(N)nc1

$$$$

  CDD

  0  0  0  0  0  0            999 V2000
M  END
> <Molecule Name>
CVD-0009578

> <SMILES>
Nc1ccc(NC(=O)[C@@H](N2CCCCC2=O)c2ccccc2)cn1

$$$$

  CDD

  0  0  0  0  0  0            999 V2000
M  END
> <Molecule Name>
CVD-0009577

> <SMILES>
O=C(Cn1c2cccnc2c(=O)n(Cc2ccccc2)c1=O)NCCc1ccccc1

$$$$

  CDD

  0  0  0  0  0  0            999 V2000
M  END
> <Molecule Name>
CVD-0009576

> <SMILES>
O=C(CCc1c[nH]c2ccccc12)N1CCC[C@@H](C1)C(=O)Nc1cccnc1

$$$$

  CDD

  0  0  0  0  0  0            999 V2000
M  END
> <Molecule Name>
CVD-0009575

> <SMILES>
Cc1ccccc1NC(=O)Cn1c2cccnc2c(=O)n(Cc2cccs2)c1=O

$$$$

  CDD

  0  0  0  0  0  0            999 V2000
M  END
> <Molecule Name>
CVD-0009574

> <SMILES>
COc1ccc(NC(=O)CCCCCN2[C@H]3N(C(=O)c4ccccc34)c3ccccc3C2=O)cn1

$$$$

  CDD

  0  0  0  0  0  0            999 V2000
M  END
> <Molecule Name>
CVD-0009573

> <SMILES>
Cc1cccc(NC(=O)Cn2c3cccnc3c(=O)n(Cc3cccs3)c2=O)c1

$$$$

  CDD

  0  0  0  0  0  0            999 V2000
M  END
> <Molecule Name>
CVD-0009572

> <SMILES>
O=C(CCCCCN1[C@H]2N(C(=O)c3ccccc23)c2ccccc2C1=O)Nc1cccnc1

$$$$

  CDD

  0  0  0  0  0  0            999 V2000
M  END
> <Molecule Name>
CVD-0009571

> <SMILES>
O=C(NCCCc1ccccc1)c1ccc(Cn2c3ncccc3[nH]c(=O)c2=O)cc1

$$$$

  CDD

  0  0  0  0  0  0            999 V2000
M  END
> <Molecule Name>
CVD-0009570

> <SMILES>
COc1cccc2C(=O)c3c(O)c4C[C@](O)(C[C@H](O[C@H]5C[C@H](N)[C@H](O)[C@H](C)O5)c4c(O)c3C(=O)c12)C(=O)CO

$$$$

  CDD

  0  0  0  0  0  0            999 V2000
M  END
> <Molecule Name>
CVD-0009569

> <SMILES>
Clc1ccc2OCC[C@@H](C(=O)Nc3nncn3C3CC3)c2c1

$$$$

  CDD

  0  0  0  0  0  0            999 V2000
M  END
> <Molecule Name>
CVD-0009568

> <SMILES>
Cc1ccc(NC(=O)Cn2c3cccnc3c(=O)n(Cc3ccccn3)c2=O)c(C)c1

$$$$

  CDD

  0  0  0  0  0  0            999 V2000
M  END
> <Molecule Name>
CVD-0009567

> <SMILES>
Cc1ccccc1Cn1c2cccnc2c(=O)n(Cc2ccc3OCOc3c2)c1=O

$$$$

  CDD

  0  0  0  0  0  0            999 V2000
M  END
> <Molecule Name>
CVD-0009566

> <SMILES>
O=C(CCS(=O)(=O)Cc1ccccc1)Nc1cccnc1

$$$$

  CDD

  0  0  0  0  0  0            999 V2000
M  END
> <Molecule Name>
CVD-0009565

> <SMILES>
Cc1cc2c(nc(CSCC(=O)Nc3cccnc3)[nH]c2=O)s1

$$$$

  CDD

  0  0  0  0  0  0            999 V2000
M  END
> <Molecule Name>
CVD-0009564

> <SMILES>
O=C(CNC(=O)[C@@H]1C[C@H]2CCCC[C@H]2N1)Nc1cccnc1

$$$$

  CDD

  0  0  0  0  0  0            999 V2000
M  END
> <Molecule Name>
CVD-0009563

> <SMILES>
COc1ncc(NC(=O)[C@@H]2C[C@H]3CCCC[C@H]3N2)cc1C(N)=O

$$$$

  CDD

  0  0  0  0  0  0            999 V2000
M  END
> <Molecule Name>
CVD-0009562

> <SMILES>
O=C(CCCc1nnc2ccccn12)Nc1cccnc1

$$$$

  CDD

  0  0  0  0  0  0            999 V2000
M  END
> <Molecule Name>
CVD-0009561

> <SMILES>
Clc1ccccc1CNC(=O)Cn1c2cccnc2c(=O)n(Cc2ccccc2)c1=O

$$$$

  CDD

  0  0  0  0  0  0            999 V2000
M  END
> <Molecule Name>
CVD-0009560

> <SMILES>
Cc1ccc2ncc(NC(=O)NCC#N)c(O)c2c1

$$$$

  CDD

  0  0  0  0  0  0            999 V2000
M  END
> <Molecule Name>
CVD-0009559

> <SMILES>
CCC[C@@H](N)C(=O)NCc1ccc(cc1)C(=O)Nc1cccnc1

$$$$

  CDD

  0  0  0  0  0  0            999 V2000
M  END
> <Molecule Name>
CVD-0009558

> <SMILES>
C[C@H]1CCCCN1CCNC(=O)Cn1c2cccnc2n(C2CCCCC2)c1=O

$$$$

  CDD

  0  0  0  0  0  0            999 V2000
M  END
> <Molecule Name>
CVD-0009557

> <SMILES>
Fc1ccc(Cn2c3cccnc3n(CCNC(=O)Cc3ccccc3Cl)c2=O)cc1

$$$$

  CDD

  0  0  0  0  0  0            999 V2000
M  END
> <Molecule Name>
CVD-0009556

> <SMILES>
Cc1[nH]c2ccccc2c1[C@@H]1N(CCC(=O)Nc2cccnc2)C(=O)c2ccccc12

$$$$

  CDD

  0  0  0  0  0  0            999 V2000
M  END
> <Molecule Name>
CVD-0009555

> <SMILES>
O=C(Nc1cccnc1)C1(CCCCC1)n1cnnn1

$$$$

  CDD

  0  0  0  0  0  0            999 V2000
M  END
> <Molecule Name>
CVD-0009554

> <SMILES>
O=C(Nc1ccc(NC(=O)[C@@H]2CCCCN2)cn1)C1CC1

$$$$

  CDD

  0  0  0  0  0  0            999 V2000
M  END
> <Molecule Name>
CVD-0009553

> <SMILES>
O=C(CNCC1CC1)Nc1ccc(NC(=O)C2CC2)nc1

$$$$

  CDD

  0  0  0  0  0  0            999 V2000
M  END
> <Molecule Name>
CVD-0009552

> <SMILES>
O=c1c(NCCc2cccnc2)nc2ccncc2n1Cc1ccccc1

$$$$

  CDD

  0  0  0  0  0  0            999 V2000
M  END
> <Molecule Name>
CVD-0009551

> <SMILES>
COCc1nc2c(NC(=O)C3CCCCC3)cccn2n1

$$$$

  CDD

  0  0  0  0  0  0            999 V2000
M  END
> <Molecule Name>
CVD-0009550

> <SMILES>
NCC1(CC(=O)NCC(=O)Nc2cccnc2)CCCCC1

$$$$

  CDD

  0  0  0  0  0  0            999 V2000
M  END
> <Molecule Name>
CVD-0009549

> <SMILES>
Cc1ccc(cc1)-n1c2ncccc2n(CC(=O)NCc2cccnc2)c1=O

$$$$

  CDD

  0  0  0  0  0  0            999 V2000
M  END
> <Molecule Name>
CVD-0009548

> <SMILES>
CNc1ccc(NC(=O)[C@@H]2CCCO[C@@H]2c2ccccc2)cn1

$$$$

  CDD

  0  0  0  0  0  0            999 V2000
M  END
> <Molecule Name>
CVD-0009547

> <SMILES>
Nc1ccc(NC(=O)C2(CCOCC2)c2cccc(Cl)c2)cn1

$$$$

  CDD

  0  0  0  0  0  0            999 V2000
M  END
> <Molecule Name>
CVD-0009546

> <SMILES>
Cn1c2ncccc2n(CC(=O)N[C@H]2CCCc3ccccc23)c(=O)c1=O

$$$$

  CDD

  0  0  0  0  0  0            999 V2000
M  END
> <Molecule Name>
CVD-0009545

> <SMILES>
C[C@@H](O)c1ccc(s1)C1(CNC(=O)C(=O)Nc2cccnc2)CCCC1

$$$$

  CDD

  0  0  0  0  0  0            999 V2000
M  END
> <Molecule Name>
CVD-0009544

> <SMILES>
COc1cc(CCC(=O)N2CCN(Cc3ccc(C)cc3)c3ncccc23)cc(OC)c1OC

$$$$

  CDD

  0  0  0  0  0  0            999 V2000
M  END
> <Molecule Name>
CVD-0009543

> <SMILES>
Cc1ccc(Cn2c3ncccc3n(CC(=O)NCc3ccccc3F)c(=O)c2=O)cc1

$$$$

  CDD

  0  0  0  0  0  0            999 V2000
M  END
> <Molecule Name>
CVD-0009542

> <SMILES>
Cc1ccc(Cn2c3ncccc3n(CC(=O)NCc3ccc(F)cc3)c(=O)c2=O)cc1

$$$$

  CDD

  0  0  0  0  0  0            999 V2000
M  END
> <Molecule Name>
CVD-0009541

> <SMILES>
Fc1cccc(CNC(=O)Cn2c3cccnc3n(C3CCCC3)c2=O)c1

$$$$

  CDD

  0  0  0  0  0  0            999 V2000
M  END
> <Molecule Name>
CVD-0009540

> <SMILES>
Oc1nc(CSCC(=O)Nc2cccnc2)nc2ccccc12

$$$$

  CDD

  0  0  0  0  0  0            999 V2000
M  END
> <Molecule Name>
CVD-0009539

> <SMILES>
COc1ccccc1CNC(=O)Cn1c2cccnc2n(-c2ccc(C)cc2)c1=O

$$$$

  CDD

  0  0  0  0  0  0            999 V2000
M  END
> <Molecule Name>
CVD-0009538

> <SMILES>
Clc1ccccc1CNC(=O)Cn1c2cccnc2n(-c2ccccc2)c1=O

$$$$

  CDD

  0  0  0  0  0  0            999 V2000
M  END
> <Molecule Name>
CVD-0009537

> <SMILES>
O=C(CCN1C(=O)c2ccccc2C1=O)Nc1cccnc1NC1CCCC1

$$$$

  CDD

  0  0  0  0  0  0            999 V2000
M  END
> <Molecule Name>
CVD-0009536

> <SMILES>
COc1ccc(Cn2c(=O)n(CC(=O)Nc3ccc(C)cc3)c3cccnc3c2=O)cc1

$$$$

  CDD

  0  0  0  0  0  0            999 V2000
M  END
> <Molecule Name>
CVD-0009535

> <SMILES>
Cc1ccc(CNC(=O)Cn2c3cccnc3c(=O)n(Cc3cccs3)c2=O)cc1

$$$$

  CDD

  0  0  0  0  0  0            999 V2000
M  END
> <Molecule Name>
CVD-0009534

> <SMILES>
Clc1cccc(c1)S(=O)(=O)NCc1ccc(cc1)C(=O)Nc1cccnc1

$$$$

  CDD

  0  0  0  0  0  0            999 V2000
M  END
> <Molecule Name>
CVD-0009533

> <SMILES>
Cc1c(O)ccc2c(C)c(CCC(=O)Nc3cccnc3)c(=O)oc12

$$$$

  CDD

  0  0  0  0  0  0            999 V2000
M  END
> <Molecule Name>
CVD-0009532

> <SMILES>
Fc1ccc(CNC(=O)Cn2c3cccnc3n(C3CCCC3)c2=O)cc1

$$$$

  CDD

  0  0  0  0  0  0            999 V2000
M  END
> <Molecule Name>
CVD-0009531

> <SMILES>
C[C@H]1CCCC[C@]11NC(=O)N(CC(=O)Nc2ccc(N)nc2)C1=O

$$$$

  CDD

  0  0  0  0  0  0            999 V2000
M  END
> <Molecule Name>
CVD-0009530

> <SMILES>
O=c1n(Cc2ccccc2)c2cccnc2c(=O)n1Cc1ccc2OCOc2c1

$$$$

  CDD

  0  0  0  0  0  0            999 V2000
M  END
> <Molecule Name>
CVD-0009529

> <SMILES>
Fc1cccc(CNC(=O)Cn2c3cccnc3n(-c3ccccc3)c2=O)c1

$$$$

  CDD

  0  0  0  0  0  0            999 V2000
M  END
> <Molecule Name>
CVD-0009528

> <SMILES>
Cc1ccc(C(=O)Cn2c3cccnc3c(=O)n(Cc3cccnc3)c2=O)c(C)c1

$$$$

  CDD

  0  0  0  0  0  0            999 V2000
M  END
> <Molecule Name>
CVD-0009527

> <SMILES>
COc1cccc(CNC(=O)Cn2c3cccnc3n(-c3ccccc3)c2=O)c1

$$$$

  CDD

  0  0  0  0  0  0            999 V2000
M  END
> <Molecule Name>
CVD-0009526

> <SMILES>
COc1ccc(cc1)[C@@H](C)NC(=O)Cn1c2cccnc2n(-c2ccc(C)cc2)c1=O

$$$$

  CDD

  0  0  0  0  0  0            999 V2000
M  END
> <Molecule Name>
CVD-0009525

> <SMILES>
COc1ccc(CNC(=O)Cn2c3cccnc3n(C3CCCC3)c2=O)cc1

$$$$

  CDD

  0  0  0  0  0  0            999 V2000
M  END
> <Molecule Name>
CVD-0009524

> <SMILES>
Clc1ccccc1CCNC(=O)Cn1c2cccnc2n(Cc2ccccc2)c(=O)c1=O

$$$$

  CDD

  0  0  0  0  0  0            999 V2000
M  END
> <Molecule Name>
CVD-0009523

> <SMILES>
Fc1ccc(Cn2c3cccnc3n(CCNC(=O)c3cccc(c3)C#N)c2=O)cc1

$$$$

  CDD

  0  0  0  0  0  0            999 V2000
M  END
> <Molecule Name>
CVD-0009522

> <SMILES>
Clc1cc(NC(=O)CCC2CCNCC2)ccc1C(=O)Nc1cccnc1

$$$$

  CDD

  0  0  0  0  0  0            999 V2000
M  END
> <Molecule Name>
CVD-0009521

> <SMILES>
Fc1ccc(CNC(=O)Cn2c3cccnc3n(-c3ccccc3)c2=O)cc1

$$$$

  CDD

  0  0  0  0  0  0            999 V2000
M  END
> <Molecule Name>
CVD-0009520

> <SMILES>
Cc1ccc2[nH]cc(CCC(=O)NCC(=O)Nc3cccnc3)c2c1

$$$$

  CDD

  0  0  0  0  0  0            999 V2000
M  END
> <Molecule Name>
CVD-0009519

> <SMILES>
O=c1n(Cc2ccccc2)c2cccnc2c(=O)n1Cc1cccnc1

$$$$

  CDD

  0  0  0  0  0  0            999 V2000
M  END
> <Molecule Name>
CVD-0009518

> <SMILES>
O=C(Nc1cccnc1)[C@@H]1CCCN(C1)S(=O)(=O)c1cccs1

$$$$

  CDD

  0  0  0  0  0  0            999 V2000
M  END
> <Molecule Name>
CVD-0009517

> <SMILES>
O=C(Nc1ccc(NC(=O)[C@H]2CCCNC2)cn1)C1CC1

$$$$

  CDD

  0  0  0  0  0  0            999 V2000
M  END
> <Molecule Name>
CVD-0009516

> <SMILES>
O=C(C[C@H]1CCOc2ccccc12)N1CCSc2ncccc12

$$$$

  CDD

  0  0  0  0  0  0            999 V2000
M  END
> <Molecule Name>
CVD-0009515

> <SMILES>
O=C(Nc1cccnc1)[C@@H]1CCCN(C1)S(=O)(=O)c1ccccc1

$$$$

  CDD

  0  0  0  0  0  0            999 V2000
M  END
> <Molecule Name>
CVD-0009514

> <SMILES>
Fc1ccccc1CNC(=O)Cn1c2cccnc2n(-c2ccccc2)c1=O

$$$$

  CDD

  0  0  0  0  0  0            999 V2000
M  END
> <Molecule Name>
CVD-0009513

> <SMILES>
CCC1CCC2(CC1)NC(=O)N(CC(=O)Nc1ccc(N)nc1)C2=O

$$$$

  CDD

  0  0  0  0  0  0            999 V2000
M  END
> <Molecule Name>
CVD-0009512

> <SMILES>
Cc1cccc(NC(=O)Cn2c3cccnc3c(=O)n(Cc3ccccn3)c2=O)c1

$$$$

  CDD

  0  0  0  0  0  0            999 V2000
M  END
> <Molecule Name>
CVD-0009511

> <SMILES>
CCc1cccc(NC(=O)Cn2c3cccnc3c(=O)n(Cc3ccccn3)c2=O)c1

$$$$

  CDD

  0  0  0  0  0  0            999 V2000
M  END
> <Molecule Name>
CVD-0009510

> <SMILES>
Cc1c(CC(=O)Nc2cccnc2)c(=O)oc2cc(O)ccc12

$$$$

  CDD

  0  0  0  0  0  0            999 V2000
M  END
> <Molecule Name>
CVD-0009509

> <SMILES>
C[C@H]1CCC[C@@H](C1)C(=O)Nc1cnn(CC(=O)Nc2cccnc2)c1

$$$$

  CDD

  0  0  0  0  0  0            999 V2000
M  END
> <Molecule Name>
CVD-0009508

> <SMILES>
COc1ccc(NC(=O)c2cn(-c3ccccc3OC)c(=O)c3ccccc23)cn1

$$$$

  CDD

  0  0  0  0  0  0            999 V2000
M  END
> <Molecule Name>
CVD-0009507

> <SMILES>
Nc1ccc(NC(=O)CCS(=O)(=O)c2ccc3CCCc3c2)cn1

$$$$

  CDD

  0  0  0  0  0  0            999 V2000
M  END
> <Molecule Name>
CVD-0009506

> <SMILES>
Cc1cccc(Cn2c3cccnc3c(=O)n(Cc3ccc4OCOc4c3)c2=O)c1

$$$$

  CDD

  0  0  0  0  0  0            999 V2000
M  END
> <Molecule Name>
CVD-0009505

> <SMILES>
Clc1ccc(CNC(=O)Cn2c3cccnc3n(C3CCCC3)c2=O)cc1

$$$$

  CDD

  0  0  0  0  0  0            999 V2000
M  END
> <Molecule Name>
CVD-0009504

> <SMILES>
Fc1ccc(cc1)S(=O)(=O)N1CCC[C@H](C1)C(=O)Nc1cccnc1

$$$$

  CDD

  0  0  0  0  0  0            999 V2000
M  END
> <Molecule Name>
CVD-0009503

> <SMILES>
NC(=O)c1cccc(Cc2ccc(NC(=O)CN3CCCCC3)cn2)c1

$$$$

  CDD

  0  0  0  0  0  0            999 V2000
M  END
> <Molecule Name>
CVD-0009502

> <SMILES>
COc1cccc(CNC(=O)Cn2c3cccnc3n(-c3ccc(C)cc3)c2=O)c1

$$$$

  CDD

  0  0  0  0  0  0            999 V2000
M  END
> <Molecule Name>
CVD-0009501

> <SMILES>
Clc1ccc(CCNC(=O)CCC(=O)N2Cc3ccccc3Oc3ncccc23)cc1

$$$$

  CDD

  0  0  0  0  0  0            999 V2000
M  END
> <Molecule Name>
CVD-0009500

> <SMILES>
O=C(CCCSc1ccc(NC(=O)C2CC2)nn1)Nc1cccnc1

$$$$

  CDD

  0  0  0  0  0  0            999 V2000
M  END
> <Molecule Name>
CVD-0009499

> <SMILES>
CC(=O)c1ccc(NC(=O)Cn2c3cccnc3c(=O)n(Cc3ccccc3)c2=O)cc1

$$$$

  CDD

  0  0  0  0  0  0            999 V2000
M  END
> <Molecule Name>
CVD-0009498

> <SMILES>
Fc1ccc(cc1)C(=O)Cn1c2cccnc2c(=O)n(Cc2cccs2)c1=O

$$$$

  CDD

  0  0  0  0  0  0            999 V2000
M  END
> <Molecule Name>
CVD-0009497

> <SMILES>
O=C(Cn1c2cccnc2c(=O)n(Cc2ccc3OCOc3c2)c1=O)N1CCCc2ccccc12

$$$$

  CDD

  0  0  0  0  0  0            999 V2000
M  END
> <Molecule Name>
CVD-0009496

> <SMILES>
O=C(Cn1c2cccnc2n2nc(cc2c1=O)C1CC1)NCCc1ccccc1

$$$$

  CDD

  0  0  0  0  0  0            999 V2000
M  END
> <Molecule Name>
CVD-0009495

> <SMILES>
Cc1ccccc1Cn1c2cccnc2c(=O)n(Cc2cccnc2)c1=O

$$$$

  CDD

  0  0  0  0  0  0            999 V2000
M  END
> <Molecule Name>
CVD-0009494

> <SMILES>
COc1ccccc1CNC(=O)Cn1c2cccnc2n(C2CCCCC2)c1=O

$$$$

  CDD

  0  0  0  0  0  0            999 V2000
M  END
> <Molecule Name>
CVD-0009493

> <SMILES>
Cc1ccc(C)c(NC(=O)Cn2c3cccnc3c(=O)n(Cc3ccccn3)c2=O)c1

$$$$

  CDD

  0  0  0  0  0  0            999 V2000
M  END
> <Molecule Name>
CVD-0009492

> <SMILES>
O=C(Cn1c2cccnc2c(=O)n(Cc2cccs2)c1=O)NCc1ccccc1

$$$$

  CDD

  0  0  0  0  0  0            999 V2000
M  END
> <Molecule Name>
CVD-0009491

> <SMILES>
CCc1ccccc1NC(=O)Cn1c2cccnc2c(=O)n(Cc2ccccn2)c1=O

$$$$

  CDD

  0  0  0  0  0  0            999 V2000
M  END
> <Molecule Name>
CVD-0009490

> <SMILES>
Clc1ccc(CNC(=O)Cn2c3cccnc3n(-c3ccccc3)c2=O)cc1

$$$$

  CDD

  0  0  0  0  0  0            999 V2000
M  END
> <Molecule Name>
CVD-0009489

> <SMILES>
COc1cccc(CNC(=O)Cn2c3cccnc3n(C3CCCCC3)c2=O)c1

$$$$

  CDD

  0  0  0  0  0  0            999 V2000
M  END
> <Molecule Name>
CVD-0009488

> <SMILES>
N[C@H](CC(=O)Nc1ccc(NC(=O)C2CC2)nc1)c1ccccc1

$$$$

  CDD

  0  0  0  0  0  0            999 V2000
M  END
> <Molecule Name>
CVD-0009487

> <SMILES>
COc1ccc(CCn2c(=O)n(Cc3ccccc3C)c3cccnc3c2=O)cc1OC

$$$$

  CDD

  0  0  0  0  0  0            999 V2000
M  END
> <Molecule Name>
CVD-0009486

> <SMILES>
Clc1ccc(cc1)S(=O)(=O)N1CCC[C@H](C1)C(=O)Nc1cccnc1

$$$$

  CDD

  0  0  0  0  0  0            999 V2000
M  END
> <Molecule Name>
CVD-0009485

> <SMILES>
O=C(Cn1c2cccnc2n2nc(cc2c1=O)C1CC1)N1CCc2ccccc12

$$$$

  CDD

  0  0  0  0  0  0            999 V2000
M  END
> <Molecule Name>
CVD-0009484

> <SMILES>
COc1ccc(CCn2c(=O)n(Cc3cccc(C)c3)c3cccnc3c2=O)cc1OC

$$$$

  CDD

  0  0  0  0  0  0            999 V2000
M  END
> <Molecule Name>
CVD-0009483

> <SMILES>
O=C(NCCn1c2ncccc2n(Cc2ccccc2)c1=O)c1cccc(c1)C#N

$$$$

  CDD

  0  0  0  0  0  0            999 V2000
M  END
> <Molecule Name>
CVD-0009482

> <SMILES>
Brc1ccc2C(=O)N(C(=O)c2c1)c1cccnc1

$$$$

  CDD

  0  0  0  0  0  0            999 V2000
M  END
> <Molecule Name>
CVD-0009481

> <SMILES>
COc1ccccc1CNC(=O)Cn1c2cccnc2n(Cc2ccc(C)cc2)c(=O)c1=O

$$$$

  CDD

  0  0  0  0  0  0            999 V2000
M  END
> <Molecule Name>
CVD-0009480

> <SMILES>
COc1ccc(cc1)[C@@H](C)NC(=O)Cn1c2cccnc2n(C2CCCCC2)c1=O

$$$$

  CDD

  0  0  0  0  0  0            999 V2000
M  END
> <Molecule Name>
CVD-0009479

> <SMILES>
O=C(Cn1c2cccnc2c(=O)n(Cc2ccccn2)c1=O)NC1CCCCC1

$$$$

  CDD

  0  0  0  0  0  0            999 V2000
M  END
> <Molecule Name>
CVD-0009478

> <SMILES>
Fc1ccc(CNC(=O)Cn2c3cccnc3n(C3CCCCC3)c2=O)c(F)c1

$$$$

  CDD

  0  0  0  0  0  0            999 V2000
M  END
> <Molecule Name>
CVD-0009477

> <SMILES>
O=C(Cn1c2cccnc2c(=O)n(Cc2cccnc2)c1=O)NC1CCCCC1

$$$$

  CDD

  0  0  0  0  0  0            999 V2000
M  END
> <Molecule Name>
CVD-0009476

> <SMILES>
CC[C@@H]1Sc2ccc(cc2NC1=O)S(=O)(=O)CCC(=O)Nc1cccnc1

$$$$

  CDD

  0  0  0  0  0  0            999 V2000
M  END
> <Molecule Name>
CVD-0009475

> <SMILES>
O=C(Cn1c2cccnc2n2nc(cc2c1=O)C1CC1)NCc1ccccc1

$$$$

  CDD

  0  0  0  0  0  0            999 V2000
M  END
> <Molecule Name>
CVD-0009474

> <SMILES>
O=C(CCN1[C@H]2N(C(=O)c3ccccc23)c2ccccc2C1=O)Nc1cccnc1

$$$$

  CDD

  0  0  0  0  0  0            999 V2000
M  END
> <Molecule Name>
CVD-0009473

> <SMILES>
CC(C)c1ccc(CNC(=O)Cn2c3cccnc3n3cnnc3c2=O)cc1

$$$$

  CDD

  0  0  0  0  0  0            999 V2000
M  END
> <Molecule Name>
CVD-0009472

> <SMILES>
Cc1ccc(CNC(=O)Cn2c3cccnc3c(=O)n(Cc3ccccn3)c2=O)cc1

$$$$

  CDD

  0  0  0  0  0  0            999 V2000
M  END
> <Molecule Name>
CVD-0009471

> <SMILES>
Fc1ccc(CNC(=O)Cn2c3cccnc3c(=O)n(Cc3ccccc3)c2=O)cc1

$$$$

  CDD

  0  0  0  0  0  0            999 V2000
M  END
> <Molecule Name>
CVD-0009470

> <SMILES>
CC(C)c1ccc(CNC(=O)Cn2c3cccnc3n3c(C)nnc3c2=O)cc1

$$$$

  CDD

  0  0  0  0  0  0            999 V2000
M  END
> <Molecule Name>
CVD-0009469

> <SMILES>
ClCC(=O)N1CC2CCC(C1)N2C(c1ccccc1)c1cccc(Cl)c1

$$$$

  CDD

  0  0  0  0  0  0            999 V2000
M  END
> <Molecule Name>
CVD-0009468

> <SMILES>
ClCC(=O)N1CC2CCC(C1)N2C(c1ccccc1)c1ccccc1

$$$$

  CDD

  0  0  0  0  0  0            999 V2000
M  END
> <Molecule Name>
CVD-0009467

> <SMILES>
ClCC(=O)N1CC2CCC(C1)N2C(c1ccccc1)c1cc(Cl)cc(Cl)c1

$$$$

  CDD

  0  0  0  0  0  0            999 V2000
M  END
> <Molecule Name>
CVD-0009466

> <SMILES>
COc1cc(ccc1O)C1NC(=O)NC(O)(C1C(=O)c1ccc(C)cc1)C(F)(F)F

$$$$

  CDD

  0  0  0  0  0  0            999 V2000
M  END
> <Molecule Name>
CVD-0009465

> <SMILES>
Cc1cc(NC(=O)c2cc3NC(CC(n3n2)C(F)(F)F)c2ccco2)no1

$$$$

  CDD

  0  0  0  0  0  0            999 V2000
M  END
> <Molecule Name>
CVD-0009464

> <SMILES>
OC1(NC(=O)NC(C1C(=O)c1ccccc1)c1ccc(o1)-c1ccccc1Cl)C(F)(F)F

$$$$

  CDD

  0  0  0  0  0  0            999 V2000
M  END
> <Molecule Name>
CVD-0009463

> <SMILES>
Cc1noc(C)c1COc1ccc(\C=C2/SC(=S)NC2=O)cc1

$$$$

  CDD

  0  0  0  0  0  0            999 V2000
M  END
> <Molecule Name>
CVD-0009462

> <SMILES>
ClCC(=O)N1CCN(CC1)S(=O)(=O)c1ccc(OCC(=O)NCc2ccc3OCOc3c2)cc1

$$$$

  CDD

  0  0  0  0  0  0            999 V2000
M  END
> <Molecule Name>
CVD-0009461

> <SMILES>
COc1ccc(NS(=O)(=O)c2ccc(NC(=O)COC3CCN(CC3C)C(=O)CCl)cc2)cc1

$$$$

  CDD

  0  0  0  0  0  0            999 V2000
M  END
> <Molecule Name>
CVD-0009460

> <SMILES>
Cc1ccc(OCC(=O)Nc2ccc(cc2)S(=O)(=O)NC2CCN(CC2)C(=O)CCl)c(C)c1

$$$$

  CDD

  0  0  0  0  0  0            999 V2000
M  END
> <Molecule Name>
CVD-0009459

> <SMILES>
C[C@@H](NC(=O)Cn1c2cccnc2n(-c2ccccc2)c1=O)c1ccccn1

$$$$

  CDD

  0  0  0  0  0  0            999 V2000
M  END
> <Molecule Name>
CVD-0009458

> <SMILES>
CN1C(=O)[C@@H](CC(=O)NCc2cccc(C)c2)Sc2ncccc12

$$$$

  CDD

  0  0  0  0  0  0            999 V2000
M  END
> <Molecule Name>
CVD-0009457

> <SMILES>
COc1ccc(cc1)[C@@H](C)NC(=O)Cn1c2cccnc2n(-c2ccccc2)c1=O

$$$$

  CDD

  0  0  0  0  0  0            999 V2000
M  END
> <Molecule Name>
CVD-0009456

> <SMILES>
N[C@H]1CCC[C@@H](C1)C(=O)NCC(=O)Nc1cccnc1

$$$$

  CDD

  0  0  0  0  0  0            999 V2000
M  END
> <Molecule Name>
CVD-0009455

> <SMILES>
N[C@@H]1CCC[C@@H]1CC(=O)N1CC(=O)Nc2cnccc12

$$$$

  CDD

  0  0  0  0  0  0            999 V2000
M  END
> <Molecule Name>
CVD-0009454

> <SMILES>
CC1CCC(CC1)NC(=O)c1cn(cn1)-c1ccc(NC(C)=O)cn1

$$$$

  CDD

  0  0  0  0  0  0            999 V2000
M  END
> <Molecule Name>
CVD-0009453

> <SMILES>
C[C@@H](c1ccccc1)n1c2cccnc2c(=O)n(Cc2ccc3OCOc3c2)c1=O

$$$$

  CDD

  0  0  0  0  0  0            999 V2000
M  END
> <Molecule Name>
CVD-0009452

> <SMILES>
Cc1nnc2n1c1ncccc1n(CC(=O)NC1CCCCC1)c2=O

$$$$

  CDD

  0  0  0  0  0  0            999 V2000
M  END
> <Molecule Name>
CVD-0009451

> <SMILES>
CC(=O)Nc1ccc(nc1)-n1cnc(c1)C(=O)NCCC1=CCCCC1

$$$$

  CDD

  0  0  0  0  0  0            999 V2000
M  END
> <Molecule Name>
CVD-0009450

> <SMILES>
O=C(CN1C(=O)NC2(CCCC2)C1=O)Nc1cccnc1

$$$$

  CDD

  0  0  0  0  0  0            999 V2000
M  END
> <Molecule Name>
CVD-0009449

> <SMILES>
CCc1cccc(NC(=O)Cn2c3cccnc3n3nc(C)cc3c2=O)c1

$$$$

  CDD

  0  0  0  0  0  0            999 V2000
M  END
> <Molecule Name>
CVD-0009448

> <SMILES>
COc1cccc(CNC(=O)CCC(=O)N2Cc3ccccc3Oc3ncccc23)c1

$$$$

  CDD

  0  0  0  0  0  0            999 V2000
M  END
> <Molecule Name>
CVD-0009447

> <SMILES>
O[C@H](CNC(=O)C(=O)Nc1cccnc1)c1csc2ccccc12

$$$$

  CDD

  0  0  0  0  0  0            999 V2000
M  END
> <Molecule Name>
CVD-0009446

> <SMILES>
Brc1csc(\C=C2/C(=O)NC(=O)N(C2=O)c2cccnc2)c1

$$$$

  CDD

  0  0  0  0  0  0            999 V2000
M  END
> <Molecule Name>
CVD-0009445

> <SMILES>
Fc1ccccc1Cn1c2cccnc2c(=O)n(Cc2ccccn2)c1=O

$$$$

  CDD

  0  0  0  0  0  0            999 V2000
M  END
> <Molecule Name>
CVD-0009444

> <SMILES>
COc1ccc(cc1)C1(CCOCC1)C(=O)Nc1cccnc1

$$$$

  CDD

  0  0  0  0  0  0            999 V2000
M  END
> <Molecule Name>
CVD-0009443

> <SMILES>
Fc1ccccc1NC(=O)Cn1c2cccnc2n2nc(cc2c1=O)C1CC1

$$$$

  CDD

  0  0  0  0  0  0            999 V2000
M  END
> <Molecule Name>
CVD-0009442

> <SMILES>
C[C@H]1Cc2cc(ccc2N1C(=O)C1CC1)S(=O)(=O)NCCC(=O)Nc1cccnc1

$$$$

  CDD

  0  0  0  0  0  0            999 V2000
M  END
> <Molecule Name>
CVD-0009441

> <SMILES>
COc1ccc(Cn2c(=O)n(CC(=O)Nc3ccccc3)c3cccnc3c2=O)cc1

$$$$

  CDD

  0  0  0  0  0  0            999 V2000
M  END
> <Molecule Name>
CVD-0009440

> <SMILES>
O=C(CCNS(=O)(=O)c1ccc2N(CCc2c1)C(=O)C1CC1)Nc1cccnc1

$$$$

  CDD

  0  0  0  0  0  0            999 V2000
M  END
> <Molecule Name>
CVD-0009439

> <SMILES>
N[C@@H]1CCC[C@@H]1CC(=O)NCCC(=O)Nc1cccnc1

$$$$

  CDD

  0  0  0  0  0  0            999 V2000
M  END
> <Molecule Name>
CVD-0009438

> <SMILES>
Clc1cccc(Cn2c3cccnc3c(=O)n(Cc3ccc4OCOc4c3)c2=O)c1

$$$$

  CDD

  0  0  0  0  0  0            999 V2000
M  END
> <Molecule Name>
CVD-0009437

> <SMILES>
O=C(CCN1C(=S)S\C(=C\c2cccs2)C1=O)Nc1cccnc1

$$$$

  CDD

  0  0  0  0  0  0            999 V2000
M  END
> <Molecule Name>
CVD-0009436

> <SMILES>
C[C@@H](CC(=O)NCC(=O)Nc1cccnc1)[C@H]1CCCNC1

$$$$

  CDD

  0  0  0  0  0  0            999 V2000
M  END
> <Molecule Name>
CVD-0009435

> <SMILES>
Fc1ccc(Cn2c3cccnc3c(=O)n(Cc3ccccn3)c2=O)cc1

$$$$

  CDD

  0  0  0  0  0  0            999 V2000
M  END
> <Molecule Name>
CVD-0009434

> <SMILES>
O=C(C[C@@H]1CSCCN1)Nc1ccc(NC(=O)C2CC2)nc1

$$$$

  CDD

  0  0  0  0  0  0            999 V2000
M  END
> <Molecule Name>
CVD-0009433

> <SMILES>
O=C(CCC1CCNCC1)NCC(=O)Nc1cccnc1

$$$$

  CDD

  0  0  0  0  0  0            999 V2000
M  END
> <Molecule Name>
CVD-0009432

> <SMILES>
CN(C)c1cccc(c1)C(=O)Nc1cccnc1SCCN1CCCCC1

$$$$

  CDD

  0  0  0  0  0  0            999 V2000
M  END
> <Molecule Name>
CVD-0009431

> <SMILES>
COc1ccc(cc1)[C@H]1[C@@H](CCC(=O)N1C)C(=O)Nc1ccc(N)nc1

$$$$

  CDD

  0  0  0  0  0  0            999 V2000
M  END
> <Molecule Name>
CVD-0009430

> <SMILES>
N[C@H]1[C@H]2CC[C@@H](C2)[C@H]1C(=O)NCC(=O)Nc1cccnc1

$$$$

  CDD

  0  0  0  0  0  0            999 V2000
M  END
> <Molecule Name>
CVD-0009429

> <SMILES>
O=C(Nc1cccnc1)c1ccc2C(=O)N(Cc3cccnc3)C(=O)c2c1

$$$$

  CDD

  0  0  0  0  0  0            999 V2000
M  END
> <Molecule Name>
CVD-0009428

> <SMILES>
O=C(Cn1c2cccnc2n(Cc2ccccc2)c(=O)c1=O)N1CCN(CC1)c1ccccc1

$$$$

  CDD

  0  0  0  0  0  0            999 V2000
M  END
> <Molecule Name>
CVD-0009427

> <SMILES>
COc1ccc(cc1OC)[C@@H](C)NC(=O)Cn1c2cccnc2n(-c2ccc(C)cc2)c1=O

$$$$

  CDD

  0  0  0  0  0  0            999 V2000
M  END
> <Molecule Name>
CVD-0009426

> <SMILES>
CC(C)n1ncc2cc(NC(=O)CCc3c[nH]c4ccccc34)cnc12

$$$$

  CDD

  0  0  0  0  0  0            999 V2000
M  END
> <Molecule Name>
CVD-0009425

> <SMILES>
C[C@H]1Cc2cc(ccc2N1C(=O)C1CC1)S(=O)(=O)CCC(=O)Nc1cccnc1

$$$$

  CDD

  0  0  0  0  0  0            999 V2000
M  END
> <Molecule Name>
CVD-0009424

> <SMILES>
COc1cccc(NC(=O)Cn2c3cccnc3c(=O)n(CCc3ccccc3)c2=O)c1

$$$$

  CDD

  0  0  0  0  0  0            999 V2000
M  END
> <Molecule Name>
CVD-0009423

> <SMILES>
Clc1ccccc1Cn1c2cccnc2c(=O)n(Cc2ccc3OCOc3c2)c1=O

$$$$

  CDD

  0  0  0  0  0  0            999 V2000
M  END
> <Molecule Name>
CVD-0009422

> <SMILES>
Nc1ccc(NC(=O)CN2C(=O)NC3(CCCCC3)C2=O)cn1

$$$$

  CDD

  0  0  0  0  0  0            999 V2000
M  END
> <Molecule Name>
CVD-0009421

> <SMILES>
Clc1cccc(Cn2c3cccnc3c(=O)n(Cc3ccccn3)c2=O)c1

$$$$

  CDD

  0  0  0  0  0  0            999 V2000
M  END
> <Molecule Name>
CVD-0009420

> <SMILES>
Cc1nnc2n1c1ncccc1n(CC(=O)NCCC1=CCCCC1)c2=O

$$$$

  CDD

  0  0  0  0  0  0            999 V2000
M  END
> <Molecule Name>
CVD-0009419

> <SMILES>
COc1cccc(NC(=O)Cn2c3cccnc3c(=O)n(Cc3ccccc3)c2=O)c1

$$$$

  CDD

  0  0  0  0  0  0            999 V2000
M  END
> <Molecule Name>
CVD-0009418

> <SMILES>
Fc1ccc(cc1)-n1c2ncccc2n(CC(=O)NCC2CCCCC2)c1=O

$$$$

  CDD

  0  0  0  0  0  0            999 V2000
M  END
> <Molecule Name>
CVD-0009417

> <SMILES>
O=C(Cn1c2cccnc2c(=O)n(Cc2ccccn2)c1=O)Nc1ccccc1

$$$$

  CDD

  0  0  0  0  0  0            999 V2000
M  END
> <Molecule Name>
CVD-0009416

> <SMILES>
COc1ccc(Cn2c(=O)n(CC(=O)Nc3ccc(Br)cc3)c3cccnc3c2=O)cc1

$$$$

  CDD

  0  0  0  0  0  0            999 V2000
M  END
> <Molecule Name>
CVD-0009415

> <SMILES>
O=C(Cn1c2cccnc2c(=O)n(Cc2ccc3OCOc3c2)c1=O)c1ccccc1

$$$$

  CDD

  0  0  0  0  0  0            999 V2000
M  END
> <Molecule Name>
CVD-0009414

> <SMILES>
COc1ccc2cc(NC(=O)[C@@H](C)n3cnc4ccccc4c3=O)cnc2c1

$$$$

  CDD

  0  0  0  0  0  0            999 V2000
M  END
> <Molecule Name>
CVD-0009413

> <SMILES>
CCc1ccc(CNC(=O)Cn2c3cccnc3n(C)c(=O)c2=O)cc1

$$$$

  CDD

  0  0  0  0  0  0            999 V2000
M  END
> <Molecule Name>
CVD-0009412

> <SMILES>
O=C(C[C@@H]1NC(=O)N(C2CCCCC2)C1=O)Nc1cccnc1

$$$$

  CDD

  0  0  0  0  0  0            999 V2000
M  END
> <Molecule Name>
CVD-0009411

> <SMILES>
CN1C(=O)N(CC(=O)Nc2cccnc2)C(=O)C11CCCCC1

$$$$

  CDD

  0  0  0  0  0  0            999 V2000
M  END
> <Molecule Name>
CVD-0009410

> <SMILES>
Fc1cccc(Cn2c3cccnc3c(=O)n(Cc3ccccn3)c2=O)c1

$$$$

  CDD

  0  0  0  0  0  0            999 V2000
M  END
> <Molecule Name>
CVD-0009409

> <SMILES>
O=c1n(Cc2cccc3ccccc23)c2cccnc2c(=O)n1Cc1ccncc1

$$$$

  CDD

  0  0  0  0  0  0            999 V2000
M  END
> <Molecule Name>
CVD-0009408

> <SMILES>
Fc1ccc(Cn2c3cccnc3c(=O)n(Cc3cccnc3)c2=O)cc1

$$$$

  CDD

  0  0  0  0  0  0            999 V2000
M  END
> <Molecule Name>
CVD-0009407

> <SMILES>
COc1ccc(CNC(=O)Cn2c3cccnc3n(-c3ccc(C)cc3)c2=O)cc1OC

$$$$

  CDD

  0  0  0  0  0  0            999 V2000
M  END
> <Molecule Name>
CVD-0009406

> <SMILES>
COc1cccc(CNC(=O)c2ccc(NC(=O)N3CCSc4ncccc34)cc2)c1

$$$$

  CDD

  0  0  0  0  0  0            999 V2000
M  END
> <Molecule Name>
CVD-0009405

> <SMILES>
O=C(Cn1c2cccnc2c(=O)n(Cc2cccnc2)c1=O)NCc1ccccc1

$$$$

  CDD

  0  0  0  0  0  0            999 V2000
M  END
> <Molecule Name>
CVD-0009404

> <SMILES>
Cc1ccc(CNC(=O)Cn2c3cccnc3c(=O)n(Cc3cccnc3)c2=O)cc1

$$$$

  CDD

  0  0  0  0  0  0            999 V2000
M  END
> <Molecule Name>
CVD-0009403

> <SMILES>
Cc1ccc(o1)-c1ccccc1NC(=O)Cn1c2cccnc2n(Cc2cccs2)c1=O

$$$$

  CDD

  0  0  0  0  0  0            999 V2000
M  END
> <Molecule Name>
CVD-0009402

> <SMILES>
Fc1ccc(CNC(=O)Cn2c3cccnc3n(-c3ccccc3)c2=O)c(Cl)c1

$$$$

  CDD

  0  0  0  0  0  0            999 V2000
M  END
> <Molecule Name>
CVD-0009401

> <SMILES>
COc1ccc(Cn2c(=O)n(CC(=O)Nc3ccccc3F)c3cccnc3c2=O)cc1

$$$$

  CDD

  0  0  0  0  0  0            999 V2000
M  END
> <Molecule Name>
CVD-0009400

> <SMILES>
Fc1ccccc1Cn1c2cccnc2c(=O)n(Cc2cccnc2)c1=O

$$$$

  CDD

  0  0  0  0  0  0            999 V2000
M  END
> <Molecule Name>
CVD-0009399

> <SMILES>
C[C@H]1Cc2cc(ccc2N1C(=O)C1CC1)S(=O)(=O)N(C)CC(=O)Nc1cccnc1

$$$$

  CDD

  0  0  0  0  0  0            999 V2000
M  END
> <Molecule Name>
CVD-0009398

> <SMILES>
Cc1c(CC(=O)Nc2cccnc2)c(=O)oc2cc(O)c(Cl)cc12

$$$$

  CDD

  0  0  0  0  0  0            999 V2000
M  END
> <Molecule Name>
CVD-0009397

> <SMILES>
O=C(Cn1c2cccnc2c(=O)n(Cc2ccc3OCOc3c2)c1=O)N1CCc2ccccc12

$$$$

  CDD

  0  0  0  0  0  0            999 V2000
M  END
> <Molecule Name>
CVD-0009396

> <SMILES>
Fc1ccccc1Cn1c2cccnc2c(=O)n(Cc2ccc3OCOc3c2)c1=O

$$$$

  CDD

  0  0  0  0  0  0            999 V2000
M  END
> <Molecule Name>
CVD-0009395

> <SMILES>
CCc1ccc(cc1)C(=O)Cn1c2cccnc2c(=O)n(Cc2ccncc2)c1=O

$$$$

  CDD

  0  0  0  0  0  0            999 V2000
M  END
> <Molecule Name>
CVD-0009394

> <SMILES>
CC(=O)Nc1ccc(nc1)-n1cnc(c1)C(=O)NC1CCCCC1

$$$$

  CDD

  0  0  0  0  0  0            999 V2000
M  END
> <Molecule Name>
CVD-0009393

> <SMILES>
O[C@H](c1cccs1)c1ccc(CNC(=O)C(=O)Nc2cccnc2)s1

$$$$

  CDD

  0  0  0  0  0  0            999 V2000
M  END
> <Molecule Name>
CVD-0009392

> <SMILES>
Clc1cccc(Cn2c3cccnc3c(=O)n(Cc3cccnc3)c2=O)c1

$$$$

  CDD

  0  0  0  0  0  0            999 V2000
M  END
> <Molecule Name>
CVD-0009391

> <SMILES>
Clc1ccccc1Cn1c2cccnc2c(=O)n(Cc2cccnc2)c1=O

$$$$

  CDD

  0  0  0  0  0  0            999 V2000
M  END
> <Molecule Name>
CVD-0009390

> <SMILES>
COc1ccc(CCn2c(=O)n(Cc3ccccc3Cl)c3cccnc3c2=O)cc1OC

$$$$

  CDD

  0  0  0  0  0  0            999 V2000
M  END
> <Molecule Name>
CVD-0009389

> <SMILES>
NC1(CCCCC1)C(=O)Nc1ccc(nc1)N1CCNC(=O)C1

$$$$

  CDD

  0  0  0  0  0  0            999 V2000
M  END
> <Molecule Name>
CVD-0009388

> <SMILES>
Cc1ccccc1CNC(=O)Cn1c2cccnc2n2cnnc2c1=O

$$$$

  CDD

  0  0  0  0  0  0            999 V2000
M  END
> <Molecule Name>
CVD-0009387

> <SMILES>
Clc1ccccc1CNC(=O)Cn1c2cccnc2c(=O)n(Cc2cccs2)c1=O

$$$$

  CDD

  0  0  0  0  0  0            999 V2000
M  END
> <Molecule Name>
CVD-0009386

> <SMILES>
Fc1ccc(CNC(=O)Cn2c3cccnc3n(-c3ccccc3)c2=O)c(F)c1

$$$$

  CDD

  0  0  0  0  0  0            999 V2000
M  END
> <Molecule Name>
CVD-0009385

> <SMILES>
O=C(Cn1c2cccnc2n2nc(cc2c1=O)C1CC1)NCc1cccs1

$$$$

  CDD

  0  0  0  0  0  0            999 V2000
M  END
> <Molecule Name>
CVD-0009384

> <SMILES>
O=C(Cn1c2cccnc2c(=O)n(Cc2cccnc2)c1=O)NCCc1ccccc1

$$$$

  CDD

  0  0  0  0  0  0            999 V2000
M  END
> <Molecule Name>
CVD-0009383

> <SMILES>
COc1ccc(CCn2c(=O)n(Cc3cccc(Cl)c3)c3cccnc3c2=O)cc1OC

$$$$

  CDD

  0  0  0  0  0  0            999 V2000
M  END
> <Molecule Name>
CVD-0009382

> <SMILES>
Cc1nnc2n1c1ncccc1n(CC(=O)NCc1cc(C)ccc1C)c2=O

$$$$

  CDD

  0  0  0  0  0  0            999 V2000
M  END
> <Molecule Name>
CVD-0009381

> <SMILES>
CCc1nnc2n1c1ncccc1n(CC(=O)NCC1CCCCC1)c2=O

$$$$

  CDD

  0  0  0  0  0  0            999 V2000
M  END
> <Molecule Name>
CVD-0009380

> <SMILES>
COc1ccc(CCn2c(=O)n(Cc3cccc(F)c3)c3cccnc3c2=O)cc1OC

$$$$

  CDD

  0  0  0  0  0  0            999 V2000
M  END
> <Molecule Name>
CVD-0009379

> <SMILES>
Cc1ccc(cc1)-n1c2ncccc2n(CC(=O)NCc2ccc(F)cc2F)c1=O

$$$$

  CDD

  0  0  0  0  0  0            999 V2000
M  END
> <Molecule Name>
CVD-0009378

> <SMILES>
COc1ccccc1CNC(=O)Cn1c2cccnc2n2nc(cc2c1=O)C1CC1

$$$$

  CDD

  0  0  0  0  0  0            999 V2000
M  END
> <Molecule Name>
CVD-0009377

> <SMILES>
COc1ccc(NC(=O)CCc2nc3sc4CCCCc4c3c(=O)[nH]2)cn1

$$$$

  CDD

  0  0  0  0  0  0            999 V2000
M  END
> <Molecule Name>
CVD-0009376

> <SMILES>
C[C@@H]1Sc2ccc(cc2NC1=O)S(=O)(=O)CCC(=O)Nc1cccnc1

$$$$

  CDD

  0  0  0  0  0  0            999 V2000
M  END
> <Molecule Name>
CVD-0009375

> <SMILES>
Cc1nnc2n1c1ncccc1n(CC(=O)NCC1CCCCC1)c2=O

$$$$

  CDD

  0  0  0  0  0  0            999 V2000
M  END
> <Molecule Name>
CVD-0009374

> <SMILES>
COc1ccc(NC(=O)CCN2[C@H]3N(C(=O)c4ccccc34)c3ccccc3C2=O)cn1

$$$$

  CDD

  0  0  0  0  0  0            999 V2000
M  END
> <Molecule Name>
CVD-0009373

> <SMILES>
Fc1ccc(Cn2c3cccnc3c(=O)n(Cc3ccc4OCOc4c3)c2=O)cc1

$$$$

  CDD

  0  0  0  0  0  0            999 V2000
M  END
> <Molecule Name>
CVD-0009372

> <SMILES>
O=C(Cn1c2cccnc2c(=O)n(Cc2cccnc2)c1=O)NC1CCCC1

$$$$

  CDD

  0  0  0  0  0  0            999 V2000
M  END
> <Molecule Name>
CVD-0009371

> <SMILES>
Fc1cccc(Cn2c3cccnc3c(=O)n(Cc3ccc4OCOc4c3)c2=O)c1

$$$$

  CDD

  0  0  0  0  0  0            999 V2000
M  END
> <Molecule Name>
CVD-0009370

> <SMILES>
Cc1cccc(CNC(=O)Cn2c3cccnc3n(C)c(=O)c2=O)c1

$$$$

  CDD

  0  0  0  0  0  0            999 V2000
M  END
> <Molecule Name>
CVD-0009369

> <SMILES>
COc1cccc(CNC(=O)Cn2c3cccnc3n3nc(cc3c2=O)C2CC2)c1

$$$$

  CDD

  0  0  0  0  0  0            999 V2000
M  END
> <Molecule Name>
CVD-0009368

> <SMILES>
Nc1ccccc1CCC(=O)Nc1ccc(nc1)N1CCNC(=O)C1

$$$$

  CDD

  0  0  0  0  0  0            999 V2000
M  END
> <Molecule Name>
CVD-0009367

> <SMILES>
Clc1cccc(CNC(=O)Cn2c3cccnc3n3nc(cc3c2=O)C2CC2)c1

$$$$

  CDD

  0  0  0  0  0  0            999 V2000
M  END
> <Molecule Name>
CVD-0009366

> <SMILES>
Fc1ccc(CNC(=O)Cn2c3cccnc3n3nc(cc3c2=O)C2CC2)cc1

$$$$

  CDD

  0  0  0  0  0  0            999 V2000
M  END
> <Molecule Name>
CVD-0009365

> <SMILES>
Fc1ccc(CNC(=O)Cn2c3cccnc3c(=O)n(Cc3cccs3)c2=O)cc1

$$$$

  CDD

  0  0  0  0  0  0            999 V2000
M  END
> <Molecule Name>
CVD-0009364

> <SMILES>
Clc1ccc(CNC(=O)Cn2c3cccnc3n3nc(cc3c2=O)C2CC2)cc1

$$$$

  CDD

  0  0  0  0  0  0            999 V2000
M  END
> <Molecule Name>
CVD-0009363

> <SMILES>
CCc1ccc(CNC(=O)Cn2c3cccnc3n3c(C)nnc3c2=O)cc1

$$$$

  CDD

  0  0  0  0  0  0            999 V2000
M  END
> <Molecule Name>
CVD-0009362

> <SMILES>
CSc1ccc(CNC(=O)Cn2c3cccnc3n3c(C)nnc3c2=O)cc1

$$$$

  CDD

  0  0  0  0  0  0            999 V2000
M  END
> <Molecule Name>
CVD-0009361

> <SMILES>
Cc1nnc2n1c1ncccc1n(CC(=O)NCc1ccc(C)c(C)c1)c2=O

$$$$

  CDD

  0  0  0  0  0  0            999 V2000
M  END
> <Molecule Name>
CVD-0009360

> <SMILES>
O=C(Cn1c2cccnc2c(=O)n(Cc2ccccn2)c1=O)NCc1ccccc1

$$$$

  CDD

  0  0  0  0  0  0            999 V2000
M  END
> <Molecule Name>
CVD-0009359

> <SMILES>
CC(=O)Nc1ccc(nc1)-n1cnc(c1)C(=O)NCCc1ccccc1

$$$$

  CDD

  0  0  0  0  0  0            999 V2000
M  END
> <Molecule Name>
CVD-0009358

> <SMILES>
Cc1ccc(NC(=O)Cn2c3cccnc3c(=O)n(Cc3cccnc3)c2=O)cc1Cl

$$$$

  CDD

  0  0  0  0  0  0            999 V2000
M  END
> <Molecule Name>
CVD-0009357

> <SMILES>
Cc1ccc(CNC(=O)CCCN2C(=O)CSc3ncccc23)cc1

$$$$

  CDD

  0  0  0  0  0  0            999 V2000
M  END
> <Molecule Name>
CVD-0009356

> <SMILES>
COCc1nc2c(NC(=O)Cc3cccs3)cccn2n1

$$$$

  CDD

  0  0  0  0  0  0            999 V2000
M  END
> <Molecule Name>
CVD-0009355

> <SMILES>
COC(=O)CCCC(=O)N1CCN(CC1)c1ccc(NC(=O)c2ccccc2F)cn1

$$$$

  CDD

  0  0  0  0  0  0            999 V2000
M  END
> <Molecule Name>
CVD-0009354

> <SMILES>
O=C(CC[C@H]1CCNC1)Nc1cccnc1-n1cncn1

$$$$

  CDD

  0  0  0  0  0  0            999 V2000
M  END
> <Molecule Name>
CVD-0009353

> <SMILES>
Cc1ccccc1Cn1c2cccnc2c(=O)n(Cc2ccncc2)c1=O

$$$$

  CDD

  0  0  0  0  0  0            999 V2000
M  END
> <Molecule Name>
CVD-0009352

> <SMILES>
C[C@H]1C[C@@H](C)CN(CCCNC(=O)CN2C(=O)CSc3ncccc23)C1

$$$$

  CDD

  0  0  0  0  0  0            999 V2000
M  END
> <Molecule Name>
CVD-0009351

> <SMILES>
Cc1ccc(cc1)-n1c2ncccc2n(CC(=O)NCc2ccco2)c1=O

$$$$

  CDD

  0  0  0  0  0  0            999 V2000
M  END
> <Molecule Name>
CVD-0009350

> <SMILES>
N[C@@H]1CC[C@H](C1)C(=O)NCC(=O)Nc1cccnc1

$$$$

  CDD

  0  0  0  0  0  0            999 V2000
M  END
> <Molecule Name>
CVD-0009349

> <SMILES>
O=C(CCC1CCNCC1)Nc1ccc(nc1)N1CCNC(=O)C1

$$$$

  CDD

  0  0  0  0  0  0            999 V2000
M  END
> <Molecule Name>
CVD-0009348

> <SMILES>
COC(=O)c1ccc(Cn2c3cccnc3c(=O)n(CCc3ccccc3)c2=O)o1

$$$$

  CDD

  0  0  0  0  0  0            999 V2000
M  END
> <Molecule Name>
CVD-0009347

> <SMILES>
COc1cccc(NC(=O)Cn2c3cccnc3n3nc(cc3c2=O)C2CC2)c1

$$$$

  CDD

  0  0  0  0  0  0            999 V2000
M  END
> <Molecule Name>
CVD-0009346

> <SMILES>
COc1cccc(NC(=O)Cn2c3cccnc3c(=O)n(Cc3ccc(F)cc3)c2=O)c1

$$$$

  CDD

  0  0  0  0  0  0            999 V2000
M  END
> <Molecule Name>
CVD-0009345

> <SMILES>
Cc1ccccc1CNC(=O)Cn1c2cccnc2n(-c2ccc(F)cc2)c1=O

$$$$

  CDD

  0  0  0  0  0  0            999 V2000
M  END
> <Molecule Name>
CVD-0009344

> <SMILES>
COc1ncc(NC(=O)CCC2CCNCC2)cc1C(N)=O

$$$$

  CDD

  0  0  0  0  0  0            999 V2000
M  END
> <Molecule Name>
CVD-0009343

> <SMILES>
Fc1cccc(NC(=O)Cn2c3cccnc3c(=O)n(Cc3cccs3)c2=O)c1

$$$$

  CDD

  0  0  0  0  0  0            999 V2000
M  END
> <Molecule Name>
CVD-0009342

> <SMILES>
Clc1ccc(Cn2c3cccnc3c(=O)n(Cc3ccccn3)c2=O)cc1Cl

$$$$

  CDD

  0  0  0  0  0  0            999 V2000
M  END
> <Molecule Name>
CVD-0009341

> <SMILES>
COc1ccc(CCC(=O)Nc2ccc(nc2)-n2cc(Cl)cn2)cc1OC

$$$$

  CDD

  0  0  0  0  0  0            999 V2000
M  END
> <Molecule Name>
CVD-0009340

> <SMILES>
NC[C@@H]1CCC[C@@H]1C(=O)NCCC(=O)Nc1cccnc1

$$$$

  CDD

  0  0  0  0  0  0            999 V2000
M  END
> <Molecule Name>
CVD-0009339

> <SMILES>
Cc1ccc(Cl)cc1NC(=O)Cn1c2cccnc2c(=O)n(Cc2cccnc2)c1=O

$$$$

  CDD

  0  0  0  0  0  0            999 V2000
M  END
> <Molecule Name>
CVD-0009338

> <SMILES>
CC(=O)N[C@H](Cc1c[nH]c2ccccc12)C(=O)Nc1cccnc1

$$$$

  CDD

  0  0  0  0  0  0            999 V2000
M  END
> <Molecule Name>
CVD-0009337

> <SMILES>
CCn1c2ncccc2n(CC(=O)NCc2ccccc2C)c(=O)c1=O

$$$$

  CDD

  0  0  0  0  0  0            999 V2000
M  END
> <Molecule Name>
CVD-0009336

> <SMILES>
COc1ccc(CNC(=O)Cn2c3cccnc3n(-c3ccccc3)c2=O)c(OC)c1

$$$$

  CDD

  0  0  0  0  0  0            999 V2000
M  END
> <Molecule Name>
CVD-0009335

> <SMILES>
Cc1ccc(o1)C(=O)Nc1cnccc1SCCCO

$$$$

  CDD

  0  0  0  0  0  0            999 V2000
M  END
> <Molecule Name>
CVD-0009334

> <SMILES>
Cc1ccc(Cn2c3ncccc3n(CC(=O)NC3CC3)c(=O)c2=O)cc1

$$$$

  CDD

  0  0  0  0  0  0            999 V2000
M  END
> <Molecule Name>
CVD-0009333

> <SMILES>
CCc1ccc(NC(=O)Cn2c3cccnc3c(=O)n(Cc3ccncc3)c2=O)cc1

$$$$

  CDD

  0  0  0  0  0  0            999 V2000
M  END
> <Molecule Name>
CVD-0009332

> <SMILES>
CCn1c2ncccc2n(CC(=O)NCc2ccc(C)cc2)c(=O)c1=O

$$$$

  CDD

  0  0  0  0  0  0            999 V2000
M  END
> <Molecule Name>
CVD-0009331

> <SMILES>
COc1ccc(cc1OC)[C@@H](C)NC(=O)Cn1c2cccnc2n(-c2ccccc2)c1=O

$$$$

  CDD

  0  0  0  0  0  0            999 V2000
M  END
> <Molecule Name>
CVD-0009330

> <SMILES>
Cc1nnc2n1c1ncccc1n(CC(=O)NC1CCCC1)c2=O

$$$$

  CDD

  0  0  0  0  0  0            999 V2000
M  END
> <Molecule Name>
CVD-0009329

> <SMILES>
Cc1cccc(CNC(=O)Cn2c3cccnc3n(-c3ccc(F)cc3)c2=O)c1

$$$$

  CDD

  0  0  0  0  0  0            999 V2000
M  END
> <Molecule Name>
CVD-0009328

> <SMILES>
CS(=O)(=O)c1ccc(NC(=O)CC[C@H]2CCNC2)cn1

$$$$

  CDD

  0  0  0  0  0  0            999 V2000
M  END
> <Molecule Name>
CVD-0009327

> <SMILES>
O=C(CNC(=O)c1c[nH]c2ccccc12)Nc1cccnc1

$$$$

  CDD

  0  0  0  0  0  0            999 V2000
M  END
> <Molecule Name>
CVD-0009326

> <SMILES>
COc1ccc(CCC(=O)Nc2ccc(nc2)-n2cc(Br)cn2)cc1OC

$$$$

  CDD

  0  0  0  0  0  0            999 V2000
M  END
> <Molecule Name>
CVD-0009325

> <SMILES>
CN1C(=O)C(C)(C)c2cc(ccc12)S(=O)(=O)N1CCC(CC1)C(=O)Nc1cccnc1

$$$$

  CDD

  0  0  0  0  0  0            999 V2000
M  END
> <Molecule Name>
CVD-0009324

> <SMILES>
CC(C)NC(=O)Cn1c2cccnc2c(=O)n(CCc2ccccc2)c1=O

$$$$

  CDD

  0  0  0  0  0  0            999 V2000
M  END
> <Molecule Name>
CVD-0009323

> <SMILES>
Fc1cccc(NC(=O)Cn2c3cccnc3n3nc(cc3c2=O)C2CC2)c1

$$$$

  CDD

  0  0  0  0  0  0            999 V2000
M  END
> <Molecule Name>
CVD-0009322

> <SMILES>
COc1ccc(cc1OC)[C@@H](CC(=O)Nc1cccnc1)N1Cc2ccccc2C1=O

$$$$

  CDD

  0  0  0  0  0  0            999 V2000
M  END
> <Molecule Name>
CVD-0009321

> <SMILES>
COc1ccc(Cn2c(=O)n(CC(=O)Nc3cccc(Cl)c3)c3cccnc3c2=O)cc1

$$$$

  CDD

  0  0  0  0  0  0            999 V2000
M  END
> <Molecule Name>
CVD-0009320

> <SMILES>
O=C(Cn1c2cccnc2n2nc(cc2c1=O)-c1ccco1)NC1CCCCC1

$$$$

  CDD

  0  0  0  0  0  0            999 V2000
M  END
> <Molecule Name>
CVD-0009319

> <SMILES>
Cc1cc2n(n1)c1ncccc1n(CC(=O)NCCc1ccccc1)c2=O

$$$$

  CDD

  0  0  0  0  0  0            999 V2000
M  END
> <Molecule Name>
CVD-0009318

> <SMILES>
Cc1ccc(Cn2c3cccnc3n(CCNC(=O)c3ccco3)c2=O)cc1

$$$$

  CDD

  0  0  0  0  0  0            999 V2000
M  END
> <Molecule Name>
CVD-0009317

> <SMILES>
O=C(CCN1C(=O)c2ccccc2S1(=O)=O)Nc1cccnc1

$$$$

  CDD

  0  0  0  0  0  0            999 V2000
M  END
> <Molecule Name>
CVD-0009316

> <SMILES>
CC[C@H](OC1CCCC1)C(=O)Nc1cnccc1O

$$$$

  CDD

  0  0  0  0  0  0            999 V2000
M  END
> <Molecule Name>
CVD-0009315

> <SMILES>
Oc1nnc(CC(=O)Nc2cccnc2)c2ccccc12

$$$$

  CDD

  0  0  0  0  0  0            999 V2000
M  END
> <Molecule Name>
CVD-0009314

> <SMILES>
O=C(C[C@H]1NC(=O)c2ccccc12)Nc1cccnc1

$$$$

  CDD

  0  0  0  0  0  0            999 V2000
M  END
> <Molecule Name>
CVD-0009313

> <SMILES>
Nc1ccc(NC(=O)CN2C(=O)NC3(CCCC3)C2=O)cn1

$$$$

  CDD

  0  0  0  0  0  0            999 V2000
M  END
> <Molecule Name>
CVD-0009312

> <SMILES>
CC(C)[C@@H](NC(=O)Cc1ccccc1)C(=O)Nc1ccc(N)nc1

$$$$

  CDD

  0  0  0  0  0  0            999 V2000
M  END
> <Molecule Name>
CVD-0009311

> <SMILES>
CN1[C@H]([C@@H](CC1=O)C(=O)Nc1cccnc1)c1ccccc1

$$$$

  CDD

  0  0  0  0  0  0            999 V2000
M  END
> <Molecule Name>
CVD-0009310

> <SMILES>
CCCCC(=O)N1CSC[C@H]1C(=O)Nc1ccc(N)nc1

$$$$

  CDD

  0  0  0  0  0  0            999 V2000
M  END
> <Molecule Name>
CVD-0009309

> <SMILES>
Cc1noc2ncc(NC(=O)CC[C@H]3CCNC3)cc12

$$$$

  CDD

  0  0  0  0  0  0            999 V2000
M  END
> <Molecule Name>
CVD-0009308

> <SMILES>
Nc1ccc(NC(=O)c2cnn(CC(=O)NC3CCCCC3)c2)cn1

$$$$

  CDD

  0  0  0  0  0  0            999 V2000
M  END
> <Molecule Name>
CVD-0009307

> <SMILES>
OC(=O)[C@H](CC(=O)Nc1cccnc1)NCc1ccccc1

$$$$

  CDD

  0  0  0  0  0  0            999 V2000
M  END
> <Molecule Name>
CVD-0009306

> <SMILES>
COc1ccc(CCC(=O)Nc2ccc(N)nc2)cc1OC

$$$$

  CDD

  0  0  0  0  0  0            999 V2000
M  END
> <Molecule Name>
CVD-0009305

> <SMILES>
COc1ccc(CNC(=O)Cn2c3cccnc3n(-c3ccccc3)c2=O)cc1OC

$$$$

  CDD

  0  0  0  0  0  0            999 V2000
M  END
> <Molecule Name>
CVD-0009304

> <SMILES>
Nc1nc(SCC(=O)Nc2cccnc2Cl)c(C#N)c(C2CC2)c1C#N

$$$$

  CDD

  0  0  0  0  0  0            999 V2000
M  END
> <Molecule Name>
CVD-0009303

> <SMILES>
Cc1ccc(NC(=O)Cn2c3cccnc3c(=O)n(Cc3ccccn3)c2=O)cc1Cl

$$$$

  CDD

  0  0  0  0  0  0            999 V2000
M  END
> <Molecule Name>
CVD-0009302

> <SMILES>
O=C(CCN1Cc2ccccc2C1=O)Nc1cccnc1

$$$$

  CDD

  0  0  0  0  0  0            999 V2000
M  END
> <Molecule Name>
CVD-0009301

> <SMILES>
Cc1ccc2CN(C(=O)CCC(O)=O)c3cccnc3Oc2c1

$$$$

  CDD

  0  0  0  0  0  0            999 V2000
M  END
> <Molecule Name>
CVD-0009300

> <SMILES>
Cc1ccc(Cn2c(=O)n(CC(=O)NCc3ccco3)c3cccnc3c2=O)cc1

$$$$

  CDD

  0  0  0  0  0  0            999 V2000
M  END
> <Molecule Name>
CVD-0009299

> <SMILES>
Cc1ccc(cc1)-n1c2ncccc2n(CC(=O)NCc2ccncc2)c1=O

$$$$

  CDD

  0  0  0  0  0  0            999 V2000
M  END
> <Molecule Name>
CVD-0009298

> <SMILES>
Fc1cccc(Cl)c1Cn1c2cccnc2c(=O)n(Cc2ccccn2)c1=O

$$$$

  CDD

  0  0  0  0  0  0            999 V2000
M  END
> <Molecule Name>
CVD-0009297

> <SMILES>
Cc1ccc(NC(=O)Cn2c3cccnc3c(=O)n(Cc3ccncc3)c2=O)c(C)c1

$$$$

  CDD

  0  0  0  0  0  0            999 V2000
M  END
> <Molecule Name>
CVD-0009296

> <SMILES>
O=C(Cn1c2cccnc2n(Cc2ccccc2)c(=O)c1=O)N1CCN(CC1)c1ccccn1

$$$$

  CDD

  0  0  0  0  0  0            999 V2000
M  END
> <Molecule Name>
CVD-0009295

> <SMILES>
O=C(CSc1nnnn1CCc1cccs1)Nc1cccnc1

$$$$

  CDD

  0  0  0  0  0  0            999 V2000
M  END
> <Molecule Name>
CVD-0009294

> <SMILES>
Cc1ccc(Cl)cc1NC(=O)Cn1c2cccnc2c(=O)n(Cc2ccccn2)c1=O

$$$$

  CDD

  0  0  0  0  0  0            999 V2000
M  END
> <Molecule Name>
CVD-0009293

> <SMILES>
Cc1ccc(C)c(NC(=O)Cn2c3cccnc3c(=O)n(Cc3ccncc3)c2=O)c1

$$$$

  CDD

  0  0  0  0  0  0            999 V2000
M  END
> <Molecule Name>
CVD-0009292

> <SMILES>
CCc1ccccc1NC(=O)Cn1c2cccnc2c(=O)n(Cc2ccncc2)c1=O

$$$$

  CDD

  0  0  0  0  0  0            999 V2000
M  END
> <Molecule Name>
CVD-0009291

> <SMILES>
CCc1cccc(NC(=O)Cn2c3cccnc3c(=O)n(Cc3ccncc3)c2=O)c1

$$$$

  CDD

  0  0  0  0  0  0            999 V2000
M  END
> <Molecule Name>
CVD-0009290

> <SMILES>
Cc1ccc(CNC(=O)Cn2c3cccnc3n(-c3ccc(F)cc3)c2=O)cc1

$$$$

  CDD

  0  0  0  0  0  0            999 V2000
M  END
> <Molecule Name>
CVD-0009289

> <SMILES>
Cc1ccc(CN2[C@H](CCC2=O)C(=O)Nc2ccc(N)nc2)cc1

$$$$

  CDD

  0  0  0  0  0  0            999 V2000
M  END
> <Molecule Name>
CVD-0009288

> <SMILES>
Cc1cc(C)cc(NC(=O)Cn2c3cccnc3c(=O)n(Cc3ccncc3)c2=O)c1

$$$$

  CDD

  0  0  0  0  0  0            999 V2000
M  END
> <Molecule Name>
CVD-0009287

> <SMILES>
O=C(Cn1c2cccnc2n2cnnc2c1=O)NCc1ccccc1

$$$$

  CDD

  0  0  0  0  0  0            999 V2000
M  END
> <Molecule Name>
CVD-0009286

> <SMILES>
Fc1ccc2C(=O)N(C(=O)c2c1)c1cccnc1

$$$$

  CDD

  0  0  0  0  0  0            999 V2000
M  END
> <Molecule Name>
CVD-0009285

> <SMILES>
CCn1c2ncccc2n(CC(=O)NCc2cccc(C)c2)c(=O)c1=O

$$$$

  CDD

  0  0  0  0  0  0            999 V2000
M  END
> <Molecule Name>
CVD-0009284

> <SMILES>
Nc1ccc(NC(=O)[C@@H]2CCCN2C(=O)Cc2ccccc2)cn1

$$$$

  CDD

  0  0  0  0  0  0            999 V2000
M  END
> <Molecule Name>
CVD-0009283

> <SMILES>
OC(=O)c1ccc(Cn2c3ncccc3[nH]c(=O)c2=O)cc1

$$$$

  CDD

  0  0  0  0  0  0            999 V2000
M  END
> <Molecule Name>
CVD-0009282

> <SMILES>
Fc1cccc(Cl)c1Cn1c2cccnc2c(=O)n(Cc2ccc3OCOc3c2)c1=O

$$$$

  CDD

  0  0  0  0  0  0            999 V2000
M  END
> <Molecule Name>
CVD-0009281

> <SMILES>
Cc1ccc(Cn2c(=O)n(CC(=O)Nc3ccc(F)cc3F)c3cccnc3c2=O)cc1

$$$$

  CDD

  0  0  0  0  0  0            999 V2000
M  END
> <Molecule Name>
CVD-0009280

> <SMILES>
Clc1ccccc1CNC(=O)Cn1c2cccnc2c(=O)n(Cc2cccnc2)c1=O

$$$$

  CDD

  0  0  0  0  0  0            999 V2000
M  END
> <Molecule Name>
CVD-0009279

> <SMILES>
COc1cccc(CSc2nc(CC(=O)Nc3cccnc3)cc(=O)[nH]2)c1

$$$$

  CDD

  0  0  0  0  0  0            999 V2000
M  END
> <Molecule Name>
CVD-0009278

> <SMILES>
Clc1ccc2C(=O)N(C(=O)c2c1)c1cccnc1

$$$$

  CDD

  0  0  0  0  0  0            999 V2000
M  END
> <Molecule Name>
CVD-0009277

> <SMILES>
O=C(CNC(=O)[C@H]1CC11CCNCC1)Nc1cccnc1

$$$$

  CDD

  0  0  0  0  0  0            999 V2000
M  END
> <Molecule Name>
CVD-0009276

> <SMILES>
Fc1ccc(F)c(CNC(=O)Cn2c3cccnc3n(C3CCCCC3)c2=O)c1

$$$$

  CDD

  0  0  0  0  0  0            999 V2000
M  END
> <Molecule Name>
CVD-0009275

> <SMILES>
Cc1cccc(NC(=O)Cn2c3cccnc3c(=O)n(Cc3ccncc3)c2=O)c1C

$$$$

  CDD

  0  0  0  0  0  0            999 V2000
M  END
> <Molecule Name>
CVD-0009274

> <SMILES>
C[C@@H](NC(=O)c1cn(cn1)-c1ccc(NC(C)=O)cn1)c1ccc(C)cc1

$$$$

  CDD

  0  0  0  0  0  0            999 V2000
M  END
> <Molecule Name>
CVD-0009273

> <SMILES>
Cc1cccc2CN(C(=O)CCC(O)=O)c3cccnc3Oc12

$$$$

  CDD

  0  0  0  0  0  0            999 V2000
M  END
> <Molecule Name>
CVD-0009272

> <SMILES>
Cc1sc2[nH]c(CCC(=O)Nc3ccc(N)nc3)nc(=O)c2c1C

$$$$

  CDD

  0  0  0  0  0  0            999 V2000
M  END
> <Molecule Name>
CVD-0009271

> <SMILES>
Fc1ccc(Cn2c3cccnc3n(CCNC(=O)[C@@H]3COc4ccccc4O3)c2=O)cc1

$$$$

  CDD

  0  0  0  0  0  0            999 V2000
M  END
> <Molecule Name>
CVD-0009270

> <SMILES>
Cc1nnc2n1c1ncccc1n(CC(=O)NCc1ccccc1C)c2=O

$$$$

  CDD

  0  0  0  0  0  0            999 V2000
M  END
> <Molecule Name>
CVD-0009269

> <SMILES>
CCc1nnc2n1c1ncccc1n(CC(=O)NCc1ccccc1C)c2=O

$$$$

  CDD

  0  0  0  0  0  0            999 V2000
M  END
> <Molecule Name>
CVD-0009268

> <SMILES>
Cc1nnc2n1c1ncccc1n(CC(=O)NCc1cccc(C)c1)c2=O

$$$$

  CDD

  0  0  0  0  0  0            999 V2000
M  END
> <Molecule Name>
CVD-0009267

> <SMILES>
CCc1nnc2n1c1ncccc1n(CC(=O)NCc1cccc(C)c1)c2=O

$$$$

  CDD

  0  0  0  0  0  0            999 V2000
M  END
> <Molecule Name>
CVD-0009266

> <SMILES>
Cc1nnc2n1c1ncccc1n(CC(=O)NCc1ccc(C)cc1)c2=O

$$$$

  CDD

  0  0  0  0  0  0            999 V2000
M  END
> <Molecule Name>
CVD-0009265

> <SMILES>
CCc1nnc2n1c1ncccc1n(CC(=O)NCc1ccc(C)cc1)c2=O

$$$$

  CDD

  0  0  0  0  0  0            999 V2000
M  END
> <Molecule Name>
CVD-0009264

> <SMILES>
Clc1ccccc1CNC(=O)Cn1c2cccnc2c(=O)n(Cc2ccccn2)c1=O

$$$$

  CDD

  0  0  0  0  0  0            999 V2000
M  END
> <Molecule Name>
CVD-0009263

> <SMILES>
Cc1cc2n(n1)c1ncccc1n(CC(=O)NC1CCCC1)c2=O

$$$$

  CDD

  0  0  0  0  0  0            999 V2000
M  END
> <Molecule Name>
CVD-0009262

> <SMILES>
Fc1ccc(CNC(=O)Cn2c3cccnc3c(=O)n(Cc3cccnc3)c2=O)cc1

$$$$

  CDD

  0  0  0  0  0  0            999 V2000
M  END
> <Molecule Name>
CVD-0009261

> <SMILES>
Fc1ccc(CNC(=O)Cn2c3cccnc3c(=O)n(Cc3ccccn3)c2=O)cc1

$$$$

  CDD

  0  0  0  0  0  0            999 V2000
M  END
> <Molecule Name>
CVD-0009260

> <SMILES>
Clc1cccc(OCC(=O)N(C2CC2)C(=O)c2cc(=O)[nH]c3ccccc23)c1

$$$$

  CDD

  0  0  0  0  0  0            999 V2000
M  END
> <Molecule Name>
CVD-0009259

> <SMILES>
Clc1cccc(CCC(=O)N(C2CC2)C(=O)c2cc(=O)[nH]c3ccccc23)c1

$$$$

  CDD

  0  0  0  0  0  0            999 V2000
M  END
> <Molecule Name>
CVD-0009258

> <SMILES>
Clc1cccc(c1)N1CCN(C(=O)c2cc(=O)[nH]c3ccccc23)C(=O)C1

$$$$

  CDD

  0  0  0  0  0  0            999 V2000
M  END
> <Molecule Name>
CVD-0009257

> <SMILES>
NC1=C(C=C(Br)C=C1)C(O)=O

$$$$

  CDD

  0  0  0  0  0  0            999 V2000
M  END
> <Molecule Name>
CVD-0009256

> <SMILES>
Clc1ccc2OCC[C@H](C(=O)Nc3nncn3C3CC3)c2c1

$$$$

  CDD

  0  0  0  0  0  0            999 V2000
M  END
> <Molecule Name>
CVD-0009255

> <SMILES>
COc1ccc(cc1)C(N1CCN(CC1)C(=O)CCl)c1cc(Cl)cc(Cl)c1

$$$$

  CDD

  0  0  0  0  0  0            999 V2000
M  END
> <Molecule Name>
CVD-0009254

> <SMILES>
Fc1cccc(c1)C(N1CCN(CC1)C(=O)CCl)c1cc(Cl)cc(Cl)c1

$$$$

  CDD

  0  0  0  0  0  0            999 V2000
M  END
> <Molecule Name>
CVD-0009253

> <SMILES>
ClCC(=O)N1CCN(CC1)C(C1CCCCC1)c1cc(Cl)cc(Cl)c1

$$$$

  CDD

  0  0  0  0  0  0            999 V2000
M  END
> <Molecule Name>
CVD-0009252

> <SMILES>
COc1cccc(c1)C(N1CCN(CC1)C(=O)CCl)c1cc(Cl)cc(Cl)c1

$$$$

  CDD

  0  0  0  0  0  0            999 V2000
M  END
> <Molecule Name>
CVD-0009251

> <SMILES>
ClCC(=O)N1CCN(CC1)C(c1ccccc1)c1cc(Cl)cc(Cl)c1

$$$$

  CDD

  0  0  0  0  0  0            999 V2000
M  END
> <Molecule Name>
CVD-0009250

> <SMILES>
O=C(CCn1c(=O)[nH]c2ccccc2c1=O)Nc1cccnc1

$$$$

  CDD

  0  0  0  0  0  0            999 V2000
M  END
> <Molecule Name>
CVD-0009249

> <SMILES>
O=c1n(Cc2ccccc2)c2cccnc2c(=O)n1Cc1ccncc1

$$$$

  CDD

  0  0  0  0  0  0            999 V2000
M  END
> <Molecule Name>
CVD-0009248

> <SMILES>
COc1ccc(NC(=O)Cn2c3cccnc3c(=O)n(CCc3ccccc3)c2=O)cc1

$$$$

  CDD

  0  0  0  0  0  0            999 V2000
M  END
> <Molecule Name>
CVD-0009247

> <SMILES>
Brc1ccccc1CNC(=O)CCCN1C(=O)CSc2ncccc12

$$$$

  CDD

  0  0  0  0  0  0            999 V2000
M  END
> <Molecule Name>
CVD-0009246

> <SMILES>
CCCC(=O)N1CCC[C@H]1C(=O)Nc1ccc(N)nc1

$$$$

  CDD

  0  0  0  0  0  0            999 V2000
M  END
> <Molecule Name>
CVD-0009245

> <SMILES>
Fc1ccccc1-c1nnc(SCC(=O)Nc2cccnc2Cl)o1

$$$$

  CDD

  0  0  0  0  0  0            999 V2000
M  END
> <Molecule Name>
CVD-0009244

> <SMILES>
Cc1cccc(Cn2c3cccnc3n(CCNC(=O)[C@@H]3CCCO3)c2=O)c1

$$$$

  CDD

  0  0  0  0  0  0            999 V2000
M  END
> <Molecule Name>
CVD-0009243

> <SMILES>
CC(C)[C@H](N1C(=O)c2ccccc2C1=O)C(=O)Nc1cccnc1

$$$$

  CDD

  0  0  0  0  0  0            999 V2000
M  END
> <Molecule Name>
CVD-0009242

> <SMILES>
Cc1sc(cc1S(=O)(=O)N1CCOCC1)C(=O)Nc1cccnc1

$$$$

  CDD

  0  0  0  0  0  0            999 V2000
M  END
> <Molecule Name>
CVD-0009241

> <SMILES>
Fc1cccc(NC(=O)Cn2c3cccnc3c(=O)n(Cc3cccnc3)c2=O)c1

$$$$

  CDD

  0  0  0  0  0  0            999 V2000
M  END
> <Molecule Name>
CVD-0009240

> <SMILES>
CCn1c2ncccc2n(CC(=O)NCCc2ccccc2Cl)c(=O)c1=O

$$$$

  CDD

  0  0  0  0  0  0            999 V2000
M  END
> <Molecule Name>
CVD-0009239

> <SMILES>
CC(C)n1ncc2cc(NC(=O)[C@H]3CCS(=O)(=O)C3)cnc12

$$$$

  CDD

  0  0  0  0  0  0            999 V2000
M  END
> <Molecule Name>
CVD-0009238

> <SMILES>
Cc1cn2cc(NC(=O)CC[C@H]3CCNC3)ccc2n1

$$$$

  CDD

  0  0  0  0  0  0            999 V2000
M  END
> <Molecule Name>
CVD-0009237

> <SMILES>
COc1cc(CCC(=O)Nc2ccc(N)nc2)cc(OC)c1

$$$$

  CDD

  0  0  0  0  0  0            999 V2000
M  END
> <Molecule Name>
CVD-0009236

> <SMILES>
Cc1ccc(CNC(=O)Cn2c3cccnc3n(-c3ccc(C)cc3)c2=O)o1

$$$$

  CDD

  0  0  0  0  0  0            999 V2000
M  END
> <Molecule Name>
CVD-0009235

> <SMILES>
CC(=O)Nc1ccc(nc1)-n1cnc(c1)C(=O)NCCc1cccs1

$$$$

  CDD

  0  0  0  0  0  0            999 V2000
M  END
> <Molecule Name>
CVD-0009234

> <SMILES>
O=C(CCCN1C(=O)CSc2ncccc12)NCc1ccccc1

$$$$

  CDD

  0  0  0  0  0  0            999 V2000
M  END
> <Molecule Name>
CVD-0009233

> <SMILES>
Clc1cccc(NC(=O)Cn2c3cccnc3c(=O)n(Cc3cccnc3)c2=O)c1

$$$$

  CDD

  0  0  0  0  0  0            999 V2000
M  END
> <Molecule Name>
CVD-0009232

> <SMILES>
CCNC(=O)Nc1ccc(OCC(=O)NC2CCCC2)nc1

$$$$

  CDD

  0  0  0  0  0  0            999 V2000
M  END
> <Molecule Name>
CVD-0009231

> <SMILES>
O=C(CC[C@H]1CCNC1)Nc1cccnc1-n1cccn1

$$$$

  CDD

  0  0  0  0  0  0            999 V2000
M  END
> <Molecule Name>
CVD-0009230

> <SMILES>
O=C(CN1C(=O)CSc2ccc(cc12)S(=O)(=O)N1CCCC1)Nc1cccnc1

$$$$

  CDD

  0  0  0  0  0  0            999 V2000
M  END
> <Molecule Name>
CVD-0009229

> <SMILES>
COc1cccc(c1)-c1cc(CC(=O)Nc2cccnc2)no1

$$$$

  CDD

  0  0  0  0  0  0            999 V2000
M  END
> <Molecule Name>
CVD-0009228

> <SMILES>
Cc1cc(C(=O)Nc2cnccc2SCCCO)c(C)o1

$$$$

  CDD

  0  0  0  0  0  0            999 V2000
M  END
> <Molecule Name>
CVD-0009227

> <SMILES>
Clc1ccc(Cn2c3cccnc3c(=O)n(Cc3ccccn3)c2=O)c(Cl)c1

$$$$

  CDD

  0  0  0  0  0  0            999 V2000
M  END
> <Molecule Name>
CVD-0009226

> <SMILES>
C[C@H](NC(=O)Cn1c2cccnc2n2cnnc2c1=O)c1ccccc1

$$$$

  CDD

  0  0  0  0  0  0            999 V2000
M  END
> <Molecule Name>
CVD-0009225

> <SMILES>
Fc1ccc(cc1)-n1c2ncccc2n(CC(=O)NC2CCCC2)c1=O

$$$$

  CDD

  0  0  0  0  0  0            999 V2000
M  END
> <Molecule Name>
CVD-0009224

> <SMILES>
COc1ccc(NC(=O)C[C@@H]2NC(=O)N(Cc3ccccc3)C2=O)cn1

$$$$

  CDD

  0  0  0  0  0  0            999 V2000
M  END
> <Molecule Name>
CVD-0009223

> <SMILES>
Fc1ccc(cc1)-n1c2ncccc2n(CC(=O)NCc2ccccc2)c1=O

$$$$

  CDD

  0  0  0  0  0  0            999 V2000
M  END
> <Molecule Name>
CVD-0009222

> <SMILES>
COc1cccc(CCNC(=O)Cn2c3cccnc3n(C)c(=O)c2=O)c1

$$$$

  CDD

  0  0  0  0  0  0            999 V2000
M  END
> <Molecule Name>
CVD-0009221

> <SMILES>
Cc1ccc(Cn2c3cccnc3n(CCNC(=O)[C@H]3CCOC3)c2=O)cc1

$$$$

  CDD

  0  0  0  0  0  0            999 V2000
M  END
> <Molecule Name>
CVD-0009220

> <SMILES>
Cc1ccc(Cn2c3cccnc3n(CCNC(=O)[C@@H]3CCCO3)c2=O)cc1

$$$$

  CDD

  0  0  0  0  0  0            999 V2000
M  END
> <Molecule Name>
CVD-0009219

> <SMILES>
CC(C)NC(=O)Cn1c2cccnc2n(-c2ccccc2)c1=O

$$$$

  CDD

  0  0  0  0  0  0            999 V2000
M  END
> <Molecule Name>
CVD-0009218

> <SMILES>
C[C@@](N)(C(=O)Nc1cnc2CC[C@H](N)Cc2c1)c1ccc(Br)cc1

$$$$

  CDD

  0  0  0  0  0  0            999 V2000
M  END
> <Molecule Name>
CVD-0009217

> <SMILES>
O=C(CC[C@H]1CCNC1)NCC(=O)Nc1cccnc1

$$$$

  CDD

  0  0  0  0  0  0            999 V2000
M  END
> <Molecule Name>
CVD-0009216

> <SMILES>
Fc1ccc(cc1)-c1cc(=O)n(CC(=O)Nc2cccnc2)cn1

$$$$

  CDD

  0  0  0  0  0  0            999 V2000
M  END
> <Molecule Name>
CVD-0009215

> <SMILES>
Clc1ccc(cc1)-c1cc(=O)n(CC(=O)Nc2cccnc2)cn1

$$$$

  CDD

  0  0  0  0  0  0            999 V2000
M  END
> <Molecule Name>
CVD-0009214

> <SMILES>
O=C(NCCn1c2ncccc2n(Cc2ccccc2)c1=O)c1ccoc1

$$$$

  CDD

  0  0  0  0  0  0            999 V2000
M  END
> <Molecule Name>
CVD-0009213

> <SMILES>
CC(=O)Nc1cccc(c1)C(=O)OCC(=O)Nc1cccnc1Cl

$$$$

  CDD

  0  0  0  0  0  0            999 V2000
M  END
> <Molecule Name>
CVD-0009212

> <SMILES>
O=C(CNC(=O)[C@@H]1CCCCN1)Nc1cccnc1

$$$$

  CDD

  0  0  0  0  0  0            999 V2000
M  END
> <Molecule Name>
CVD-0009211

> <SMILES>
O=C(CCn1cnc2ccccc2c1=O)Nc1cccnc1

$$$$

  CDD

  0  0  0  0  0  0            999 V2000
M  END
> <Molecule Name>
CVD-0009210

> <SMILES>
Cc1ccc(cc1)-n1c2ncccc2n(CC(=O)NC[C@@H]2CCCO2)c1=O

$$$$

  CDD

  0  0  0  0  0  0            999 V2000
M  END
> <Molecule Name>
CVD-0009209

> <SMILES>
O=C(CC[C@H]1CCNC1)NCCC(=O)Nc1cccnc1

$$$$

  CDD

  0  0  0  0  0  0            999 V2000
M  END
> <Molecule Name>
CVD-0009208

> <SMILES>
CCCC(=O)N1CSC[C@H]1C(=O)Nc1ccc(N)nc1

$$$$

  CDD

  0  0  0  0  0  0            999 V2000
M  END
> <Molecule Name>
CVD-0009207

> <SMILES>
CC(C)C(=O)Nc1ccc(nc1)-n1cnc(c1)C(=O)NC1CCCC1

$$$$

  CDD

  0  0  0  0  0  0            999 V2000
M  END
> <Molecule Name>
CVD-0009206

> <SMILES>
O[C@@H](CNC(=O)C(=O)Nc1cccnc1)c1ccc2OCCc2c1

$$$$

  CDD

  0  0  0  0  0  0            999 V2000
M  END
> <Molecule Name>
CVD-0009205

> <SMILES>
O=C(CN1C(=O)c2ccccc2C1=O)Nc1cccnc1-n1cccn1

$$$$

  CDD

  0  0  0  0  0  0            999 V2000
M  END
> <Molecule Name>
CVD-0009204

> <SMILES>
Clc1ccccc1CS(=O)(=O)N1CCC(CC1)C(=O)Nc1cccnc1

$$$$

  CDD

  0  0  0  0  0  0            999 V2000
M  END
> <Molecule Name>
CVD-0009203

> <SMILES>
O=C(CC1C[C@@H]2CC[C@@H](C1)N2)Nc1cccnc1-n1cncn1

$$$$

  CDD

  0  0  0  0  0  0            999 V2000
M  END
> <Molecule Name>
CVD-0009202

> <SMILES>
COc1ncc(NC(=O)[C@@H]2CCCCN2)cc1C(N)=O

$$$$

  CDD

  0  0  0  0  0  0            999 V2000
M  END
> <Molecule Name>
CVD-0009201

> <SMILES>
Cc1cccc(Cn2c3cccnc3n(CCNC(=O)[C@H]3CCOC3)c2=O)c1

$$$$

  CDD

  0  0  0  0  0  0            999 V2000
M  END
> <Molecule Name>
CVD-0009200

> <SMILES>
COc1cc(CCC(=O)Nc2cccnc2)cc(OC)c1OC

$$$$

  CDD

  0  0  0  0  0  0            999 V2000
M  END
> <Molecule Name>
CVD-0009199

> <SMILES>
O=C(CC1C[C@@H]2CC[C@@H](C1)N2)NCC(=O)Nc1cccnc1

$$$$

  CDD

  0  0  0  0  0  0            999 V2000
M  END
> <Molecule Name>
CVD-0009198

> <SMILES>
Cc1ccc(NC(=O)Cn2c3cccnc3c(=O)n(Cc3ccncc3)c2=O)cc1

$$$$

  CDD

  0  0  0  0  0  0            999 V2000
M  END
> <Molecule Name>
CVD-0009197

> <SMILES>
O=C(C[C@H]1NC(=O)c2ccccc2NC1=O)Nc1cccnc1

$$$$

  CDD

  0  0  0  0  0  0            999 V2000
M  END
> <Molecule Name>
CVD-0009196

> <SMILES>
Cc1c(Cl)cccc1NC(=O)Cn1c2cccnc2c(=O)n(Cc2ccccn2)c1=O

$$$$

  CDD

  0  0  0  0  0  0            999 V2000
M  END
> <Molecule Name>
CVD-0009195

> <SMILES>
O=C(Nc1cccnc1)c1cccc(CN2C(=O)CNC2=O)c1

$$$$

  CDD

  0  0  0  0  0  0            999 V2000
M  END
> <Molecule Name>
CVD-0009194

> <SMILES>
COc1cc(Cn2c3cccnc3c(=O)n(CCc3ccccc3)c2=O)cc(OC)c1

$$$$

  CDD

  0  0  0  0  0  0            999 V2000
M  END
> <Molecule Name>
CVD-0009193

> <SMILES>
COCCNC(=O)N1CCN(Cc2ccccc2)c2ncccc12

$$$$

  CDD

  0  0  0  0  0  0            999 V2000
M  END
> <Molecule Name>
CVD-0009192

> <SMILES>
COc1cc(Cn2c3cccnc3c(=O)n(Cc3ccc(C)cc3)c2=O)cc(OC)c1

$$$$

  CDD

  0  0  0  0  0  0            999 V2000
M  END
> <Molecule Name>
CVD-0009191

> <SMILES>
Clc1ncccc1NC(=O)CCn1cnc2ccccc2c1=O

$$$$

  CDD

  0  0  0  0  0  0            999 V2000
M  END
> <Molecule Name>
CVD-0009190

> <SMILES>
Clc1cccc(NC(=O)Cn2c3cccnc3c(=O)n(Cc3ccccn3)c2=O)c1

$$$$

  CDD

  0  0  0  0  0  0            999 V2000
M  END
> <Molecule Name>
CVD-0009189

> <SMILES>
COc1cc(CCC(=O)Nc2ccc(N)nc2)cc(OC)c1OC

$$$$

  CDD

  0  0  0  0  0  0            999 V2000
M  END
> <Molecule Name>
CVD-0009188

> <SMILES>
O=C(Cn1c2cccnc2c(=O)n(Cc2ccc3OCOc3c2)c1=O)N1CCN(CC1)c1ccccc1

$$$$

  CDD

  0  0  0  0  0  0            999 V2000
M  END
> <Molecule Name>
CVD-0009187

> <SMILES>
Cc1cc2n(n1)c1ncccc1n(CC(=O)N1CCc3ccccc13)c2=O

$$$$

  CDD

  0  0  0  0  0  0            999 V2000
M  END
> <Molecule Name>
CVD-0009186

> <SMILES>
C[C@H](NC(=O)Cn1c2cccnc2n2c(C)nnc2c1=O)c1ccccc1

$$$$

  CDD

  0  0  0  0  0  0            999 V2000
M  END
> <Molecule Name>
CVD-0009185

> <SMILES>
Cc1ccc(Cn2c3ncccc3n(CC(=O)N3CCC4(CC3)OCCO4)c(=O)c2=O)cc1

$$$$

  CDD

  0  0  0  0  0  0            999 V2000
M  END
> <Molecule Name>
CVD-0009184

> <SMILES>
O=C(Cn1c2cccnc2n(C2CCCC2)c1=O)NCc1ccco1

$$$$

  CDD

  0  0  0  0  0  0            999 V2000
M  END
> <Molecule Name>
CVD-0009183

> <SMILES>
Cc1ccccc1NC(=O)Cn1c2cccnc2c(=O)n(Cc2ccncc2)c1=O

$$$$

  CDD

  0  0  0  0  0  0            999 V2000
M  END
> <Molecule Name>
CVD-0009182

> <SMILES>
Oc1nc(CCC(=O)Nc2ccc(Cl)nc2)nc2ccccc12

$$$$

  CDD

  0  0  0  0  0  0            999 V2000
M  END
> <Molecule Name>
CVD-0009181

> <SMILES>
COC(=O)c1ccc(Cn2c3cccnc3c(=O)n(Cc3ccccc3)c2=O)o1

$$$$

  CDD

  0  0  0  0  0  0            999 V2000
M  END
> <Molecule Name>
CVD-0009180

> <SMILES>
Cc1cccc(NC(=O)Cn2c3cccnc3c(=O)n(Cc3ccncc3)c2=O)c1

$$$$

  CDD

  0  0  0  0  0  0            999 V2000
M  END
> <Molecule Name>
CVD-0009179

> <SMILES>
CC(=O)Nc1ccc(SCCCC(=O)Nc2cccnc2)nn1

$$$$

  CDD

  0  0  0  0  0  0            999 V2000
M  END
> <Molecule Name>
CVD-0009178

> <SMILES>
O=C(Cn1ncc2COc3ccccc3-c12)Nc1cccnc1

$$$$

  CDD

  0  0  0  0  0  0            999 V2000
M  END
> <Molecule Name>
CVD-0009177

> <SMILES>
Cc1ccc(cc1)-n1c2ncccc2n(CC(=O)NCCCN2CCCC2=O)c1=O

$$$$

  CDD

  0  0  0  0  0  0            999 V2000
M  END
> <Molecule Name>
CVD-0009176

> <SMILES>
Cc1ccc(cc1)-n1c2ncccc2n(CC(=O)NCCN2CCOCC2)c1=O

$$$$

  CDD

  0  0  0  0  0  0            999 V2000
M  END
> <Molecule Name>
CVD-0009175

> <SMILES>
COc1ccc(CCn2c(=O)[nH]c3cccnc3c2=O)cc1OC

$$$$

  CDD

  0  0  0  0  0  0            999 V2000
M  END
> <Molecule Name>
CVD-0009174

> <SMILES>
Nc1ccc(NC(=O)[C@@H]2CCCN2S(=O)(=O)c2ccccc2)cn1

$$$$

  CDD

  0  0  0  0  0  0            999 V2000
M  END
> <Molecule Name>
CVD-0009173

> <SMILES>
CN1CCN(CC(=O)Nc2ccc(Cc3cccc(c3)C(N)=O)nc2)CC1

$$$$

  CDD

  0  0  0  0  0  0            999 V2000
M  END
> <Molecule Name>
CVD-0009172

> <SMILES>
COc1ccc(cc1)-n1c2ncccc2n(CC(=O)NCc2ccc(C)cc2)c1=O

$$$$

  CDD

  0  0  0  0  0  0            999 V2000
M  END
> <Molecule Name>
CVD-0009171

> <SMILES>
CC1CCN(CC1)C(=O)Cn1c2cccnc2n(-c2ccc(F)cc2)c1=O

$$$$

  CDD

  0  0  0  0  0  0            999 V2000
M  END
> <Molecule Name>
CVD-0009170

> <SMILES>
Fc1ccc(F)c(CNC(=O)Cn2c3cccnc3n(C3CCCC3)c2=O)c1

$$$$

  CDD

  0  0  0  0  0  0            999 V2000
M  END
> <Molecule Name>
CVD-0009169

> <SMILES>
COCCNC(=O)Cn1c2cccnc2n(-c2ccccc2)c1=O

$$$$

  CDD

  0  0  0  0  0  0            999 V2000
M  END
> <Molecule Name>
CVD-0009168

> <SMILES>
COCCNC(=O)Cc1ccc(NC(=O)N2CCSc3ncccc23)cc1

$$$$

  CDD

  0  0  0  0  0  0            999 V2000
M  END
> <Molecule Name>
CVD-0009167

> <SMILES>
NC(=O)c1cccc(Cc2ccc(NC(=O)CN3CCOCC3)cn2)c1

$$$$

  CDD

  0  0  0  0  0  0            999 V2000
M  END
> <Molecule Name>
CVD-0009166

> <SMILES>
Fc1cccc(NC(=O)Cn2c3cccnc3c(=O)n(Cc3ccccn3)c2=O)c1

$$$$

  CDD

  0  0  0  0  0  0            999 V2000
M  END
> <Molecule Name>
CVD-0009165

> <SMILES>
Cc1cc2n(n1)c1ncccc1n(CC(=O)NCc1ccccc1)c2=O

$$$$

  CDD

  0  0  0  0  0  0            999 V2000
M  END
> <Molecule Name>
CVD-0009164

> <SMILES>
Cc1ccc(cc1)C(=O)Nc1ccc(nc1)N1CCN(CC1)C(=O)NCc1ccco1

$$$$

  CDD

  0  0  0  0  0  0            999 V2000
M  END
> <Molecule Name>
CVD-0009163

> <SMILES>
Cc1nnc2n1c1ncccc1n(CC(=O)NCc1ccccc1)c2=O

$$$$

  CDD

  0  0  0  0  0  0            999 V2000
M  END
> <Molecule Name>
CVD-0009162

> <SMILES>
Cc1ccc(CNC(=O)Cn2c3cccnc3c(=O)n(Cc3ccncc3)c2=O)cc1

$$$$

  CDD

  0  0  0  0  0  0            999 V2000
M  END
> <Molecule Name>
CVD-0009161

> <SMILES>
CN1CCN(CC1)C(=O)Cn1c2cccnc2n(-c2ccc(C)cc2)c1=O

$$$$

  CDD

  0  0  0  0  0  0            999 V2000
M  END
> <Molecule Name>
CVD-0009160

> <SMILES>
COc1ccc(NC(=O)CCc2ccc3OCCN(Cc3c2)C(=O)NC(C)C)cn1

$$$$

  CDD

  0  0  0  0  0  0            999 V2000
M  END
> <Molecule Name>
CVD-0009159

> <SMILES>
COc1cccc(CSc2nc(C)c(CC(=O)Nc3cccnc3)c(=O)[nH]2)c1

$$$$

  CDD

  0  0  0  0  0  0            999 V2000
M  END
> <Molecule Name>
CVD-0009158

> <SMILES>
CCc1nnc2n1c1ncccc1n(CC(=O)NCc1ccccc1)c2=O

$$$$

  CDD

  0  0  0  0  0  0            999 V2000
M  END
> <Molecule Name>
CVD-0009157

> <SMILES>
COc1ccc(NC(=O)C[C@@H](C)CC(=O)Nc2cccnc2)c(OC)c1

$$$$

  CDD

  0  0  0  0  0  0            999 V2000
M  END
> <Molecule Name>
CVD-0009156

> <SMILES>
CCn1c2ncccc2n(CC(=O)NCc2ccccc2)c(=O)c1=O

$$$$

  CDD

  0  0  0  0  0  0            999 V2000
M  END
> <Molecule Name>
CVD-0009155

> <SMILES>
Cc1ccc(cc1)-n1c2ncccc2n(CC(=O)NCc2cc(F)ccc2F)c1=O

$$$$

  CDD

  0  0  0  0  0  0            999 V2000
M  END
> <Molecule Name>
CVD-0009154

> <SMILES>
CCn1c2ncccc2n(CC(=O)N[C@H](C)c2ccccc2)c(=O)c1=O

$$$$

  CDD

  0  0  0  0  0  0            999 V2000
M  END
> <Molecule Name>
CVD-0009153

> <SMILES>
COc1ccc(cc1)-n1c2ncccc2n(CC(=O)NCc2cccc(C)c2)c1=O

$$$$

  CDD

  0  0  0  0  0  0            999 V2000
M  END
> <Molecule Name>
CVD-0009152

> <SMILES>
C[C@@H](NC(=O)Cn1c2cccnc2n(C)c(=O)c1=O)c1ccccc1

$$$$

  CDD

  0  0  0  0  0  0            999 V2000
M  END
> <Molecule Name>
CVD-0009151

> <SMILES>
O=C(Nc1ccc(NC(=O)[C@@H]2COCCN2)cn1)C1CC1

$$$$

  CDD

  0  0  0  0  0  0            999 V2000
M  END
> <Molecule Name>
CVD-0009150

> <SMILES>
Cn1c2ncccc2n(CC(=O)NCc2ccccc2F)c(=O)c1=O

$$$$

  CDD

  0  0  0  0  0  0            999 V2000
M  END
> <Molecule Name>
CVD-0009149

> <SMILES>
COc1ccc(CCn2c(=O)n(CC(N)=O)c3cccnc3c2=O)cc1OC

$$$$

  CDD

  0  0  0  0  0  0            999 V2000
M  END
> <Molecule Name>
CVD-0009148

> <SMILES>
O=C(CCCn1cnc2ccccc2c1=O)Nc1cccnc1

$$$$

  CDD

  0  0  0  0  0  0            999 V2000
M  END
> <Molecule Name>
CVD-0009147

> <SMILES>
Cc1nc2ccccc2n(CC(=O)Nc2cccnc2)c1=O

$$$$

  CDD

  0  0  0  0  0  0            999 V2000
M  END
> <Molecule Name>
CVD-0009146

> <SMILES>
CCn1c2ncccc2n(CC(=O)NCc2ccccc2Cl)c(=O)c1=O

$$$$

  CDD

  0  0  0  0  0  0            999 V2000
M  END
> <Molecule Name>
CVD-0009145

> <SMILES>
COc1cccc(CNC(=O)CN2C(=O)CSc3ncccc23)c1

$$$$

  CDD

  0  0  0  0  0  0            999 V2000
M  END
> <Molecule Name>
CVD-0009144

> <SMILES>
Cc1nn(C)c(C)c1CNC(=O)Cn1c2cccnc2n(Cc2ccccc2)c(=O)c1=O

$$$$

  CDD

  0  0  0  0  0  0            999 V2000
M  END
> <Molecule Name>
CVD-0009143

> <SMILES>
N[C@H](C1CCOCC1)C(=O)NCc1ccc(cc1)C(=O)Nc1cccnc1

$$$$

  CDD

  0  0  0  0  0  0            999 V2000
M  END
> <Molecule Name>
CVD-0009142

> <SMILES>
O=C(Cc1ccc(NC(=O)N2CCSc3ncccc23)cc1)NCCc1ccco1

$$$$

  CDD

  0  0  0  0  0  0            999 V2000
M  END
> <Molecule Name>
CVD-0009141

> <SMILES>
CC(C)n1ncc2cc(NC(=O)CCCN3C(=O)NC4(CCCC4)C3=O)cnc12

$$$$

  CDD

  0  0  0  0  0  0            999 V2000
M  END
> <Molecule Name>
CVD-0009140

> <SMILES>
Cc1noc(C)c1CCC(=O)Nc1ccc(N)nc1

$$$$

  CDD

  0  0  0  0  0  0            999 V2000
M  END
> <Molecule Name>
CVD-0009139

> <SMILES>
Cc1nc2ccc(NC(=O)N3CCC[C@H](C3)C(O)=O)cn2n1

$$$$

  CDD

  0  0  0  0  0  0            999 V2000
M  END
> <Molecule Name>
CVD-0009138

> <SMILES>
CCc1nnc2n1c1ncccc1n(CC(=O)N[C@@H](C)c1ccccc1)c2=O

$$$$

  CDD

  0  0  0  0  0  0            999 V2000
M  END
> <Molecule Name>
CVD-0009137

> <SMILES>
Cc1cn2cc(NC(=O)N3CCC[C@H](C3)C(O)=O)ccc2n1

$$$$

  CDD

  0  0  0  0  0  0            999 V2000
M  END
> <Molecule Name>
CVD-0009136

> <SMILES>
CN1C(=O)[C@@H](CC(=O)NCc2ccccc2F)Sc2ncccc12

$$$$

  CDD

  0  0  0  0  0  0            999 V2000
M  END
> <Molecule Name>
CVD-0009135

> <SMILES>
Cc1nnc2n1c1ncccc1n(CC(=O)NCC1CC1)c2=O

$$$$

  CDD

  0  0  0  0  0  0            999 V2000
M  END
> <Molecule Name>
CVD-0009134

> <SMILES>
COc1ccc(C)cc1NC(=O)Cn1c2cccnc2n2nc(C)cc2c1=O

$$$$

  CDD

  0  0  0  0  0  0            999 V2000
M  END
> <Molecule Name>
CVD-0009133

> <SMILES>
O=C(CCCn1c(=O)[nH]c2ccccc2c1=O)Nc1cccnc1

$$$$

  CDD

  0  0  0  0  0  0            999 V2000
M  END
> <Molecule Name>
CVD-0009132

> <SMILES>
O=C(Cn1c2cccnc2c(=O)n(Cc2ccncc2)c1=O)Nc1ccccc1

$$$$

  CDD

  0  0  0  0  0  0            999 V2000
M  END
> <Molecule Name>
CVD-0009131

> <SMILES>
Clc1cccc(Cn2c3cccnc3c(=O)n(Cc3ccncc3)c2=O)c1

$$$$

  CDD

  0  0  0  0  0  0            999 V2000
M  END
> <Molecule Name>
CVD-0009130

> <SMILES>
COc1ccc(Cl)cc1N(CC(=O)Nc1cccnc1)S(=O)(=O)c1ccccc1

$$$$

  CDD

  0  0  0  0  0  0            999 V2000
M  END
> <Molecule Name>
CVD-0009129

> <SMILES>
COc1ccc(NC(=O)CCc2cc(OC)c(OC)c(OC)c2)cn1

$$$$

  CDD

  0  0  0  0  0  0            999 V2000
M  END
> <Molecule Name>
CVD-0009128

> <SMILES>
O=C(CC[C@H]1NC(=O)c2ccccc2NC1=O)Nc1cccnc1

$$$$

  CDD

  0  0  0  0  0  0            999 V2000
M  END
> <Molecule Name>
CVD-0009127

> <SMILES>
Fc1ccc(cc1)-n1c2ncccc2n(CC(=O)NCc2ccccc2Cl)c1=O

$$$$

  CDD

  0  0  0  0  0  0            999 V2000
M  END
> <Molecule Name>
CVD-0009126

> <SMILES>
CC(=O)Nc1ccc(OCC(=O)NCc2cccc(F)c2)nc1

$$$$

  CDD

  0  0  0  0  0  0            999 V2000
M  END
> <Molecule Name>
CVD-0009125

> <SMILES>
O=C(C[C@H]1CSc2nc3n(ncc3c(=O)n12)-c1ccccc1)Nc1cccnc1

$$$$

  CDD

  0  0  0  0  0  0            999 V2000
M  END
> <Molecule Name>
CVD-0009124

> <SMILES>
CO[C@@H](CNC(=O)C(=O)Nc1cccnc1)c1cccc(OC)c1

$$$$

  CDD

  0  0  0  0  0  0            999 V2000
M  END
> <Molecule Name>
CVD-0009123

> <SMILES>
Fc1ccc(NC(=O)Cn2c3cccnc3c(=O)n(Cc3ccccc3)c2=O)cc1

$$$$

  CDD

  0  0  0  0  0  0            999 V2000
M  END
> <Molecule Name>
CVD-0009122

> <SMILES>
C[C@@H]1OCCN[C@@H]1C(=O)NCc1ccc(cc1)C(=O)Nc1cccnc1

$$$$

  CDD

  0  0  0  0  0  0            999 V2000
M  END
> <Molecule Name>
CVD-0009121

> <SMILES>
COc1ccccc1CNC(=O)CN1C(=O)CSc2ncccc12

$$$$

  CDD

  0  0  0  0  0  0            999 V2000
M  END
> <Molecule Name>
CVD-0009120

> <SMILES>
Fc1ccc(cc1)-n1c2ncccc2n(CC(=O)NCc2cccc(F)c2)c1=O

$$$$

  CDD

  0  0  0  0  0  0            999 V2000
M  END
> <Molecule Name>
CVD-0009119

> <SMILES>
COc1ccc(CCNC(=O)CN2C(=O)CSc3ncccc23)cc1OC

$$$$

  CDD

  0  0  0  0  0  0            999 V2000
M  END
> <Molecule Name>
CVD-0009118

> <SMILES>
NC[C@H]1CC[C@H](O1)C(=O)NCc1ccc(cc1)C(=O)Nc1cccnc1

$$$$

  CDD

  0  0  0  0  0  0            999 V2000
M  END
> <Molecule Name>
CVD-0009117

> <SMILES>
Clc1cccc(CNC(=O)CCCN2C(=O)CSc3ncccc23)c1

$$$$

  CDD

  0  0  0  0  0  0            999 V2000
M  END
> <Molecule Name>
CVD-0009116

> <SMILES>
Nc1ccc(NC(=O)[C@@H]2CCCN2S(=O)(=O)c2cccs2)cn1

$$$$

  CDD

  0  0  0  0  0  0            999 V2000
M  END
> <Molecule Name>
CVD-0009115

> <SMILES>
Nc1ccccc1C(=O)Nc1ccc(nc1)N1CCOCC1

$$$$

  CDD

  0  0  0  0  0  0            999 V2000
M  END
> <Molecule Name>
CVD-0009114

> <SMILES>
O=C(Cn1cnc(c1)S(=O)(=O)N1CCCCC1)Nc1cccnc1

$$$$

  CDD

  0  0  0  0  0  0            999 V2000
M  END
> <Molecule Name>
CVD-0009113

> <SMILES>
COc1ncc(NC(=O)[C@]2(C)CCCCN2)cc1C(N)=O

$$$$

  CDD

  0  0  0  0  0  0            999 V2000
M  END
> <Molecule Name>
CVD-0009112

> <SMILES>
O=C(Cn1c2cccnc2n2cnnc2c1=O)NCc1cccs1

$$$$

  CDD

  0  0  0  0  0  0            999 V2000
M  END
> <Molecule Name>
CVD-0009111

> <SMILES>
Fc1ccc(CNC(=O)Cn2c3cccnc3n(-c3ccc(F)cc3)c2=O)cc1

$$$$

  CDD

  0  0  0  0  0  0            999 V2000
M  END
> <Molecule Name>
CVD-0009110

> <SMILES>
O=C(Cc1csc(NC(=O)c2ccsc2)n1)Nc1cccnc1

$$$$

  CDD

  0  0  0  0  0  0            999 V2000
M  END
> <Molecule Name>
CVD-0009109

> <SMILES>
COc1ccc(CCN2C[C@@H](CC2=O)C(=O)Nc2ccc(N)nc2)cc1OC

$$$$

  CDD

  0  0  0  0  0  0            999 V2000
M  END
> <Molecule Name>
CVD-0009108

> <SMILES>
NC1(CCOCC1)C(=O)NCc1ccc(cc1)C(=O)Nc1cccnc1

$$$$

  CDD

  0  0  0  0  0  0            999 V2000
M  END
> <Molecule Name>
CVD-0009107

> <SMILES>
O=C(Nc1ccc(NC(=O)C2CCNCC2)cn1)C1CC1

$$$$

  CDD

  0  0  0  0  0  0            999 V2000
M  END
> <Molecule Name>
CVD-0009106

> <SMILES>
Cn1c2ncccc2n(CC(=O)NCc2ccccc2Cl)c(=O)c1=O

$$$$

  CDD

  0  0  0  0  0  0            999 V2000
M  END
> <Molecule Name>
CVD-0009105

> <SMILES>
Fc1ccc(cc1)-n1c2ncccc2n(CC(=O)NCc2ccccc2F)c1=O

$$$$

  CDD

  0  0  0  0  0  0            999 V2000
M  END
> <Molecule Name>
CVD-0009104

> <SMILES>
COc1ccc(Br)cc1CNC(=O)CN1C(=O)CSc2ncccc12

$$$$

  CDD

  0  0  0  0  0  0            999 V2000
M  END
> <Molecule Name>
CVD-0009103

> <SMILES>
O=C(Cn1c2cccnc2c(=O)n(Cc2ccncc2)c1=O)NCc1ccccc1

$$$$

  CDD

  0  0  0  0  0  0            999 V2000
M  END
> <Molecule Name>
CVD-0009102

> <SMILES>
Cc1ccc(Cn2c3ncccc3n(CC(=O)N3CCN(CC3)C(=O)c3ccco3)c(=O)c2=O)cc1

$$$$

  CDD

  0  0  0  0  0  0            999 V2000
M  END
> <Molecule Name>
CVD-0009101

> <SMILES>
O=C(Cn1c2cccnc2c(=O)n(Cc2ccccc2)c1=O)NCc1ccco1

$$$$

  CDD

  0  0  0  0  0  0            999 V2000
M  END
> <Molecule Name>
CVD-0009100

> <SMILES>
OC(=O)CN1C(=O)CN(C(=O)Nc2cccnc2)c2ccccc12

$$$$

  CDD

  0  0  0  0  0  0            999 V2000
M  END
> <Molecule Name>
CVD-0009099

> <SMILES>
O=C(Nc1ccc(NC(=O)[C@@H]2CNCCO2)cn1)C1CC1

$$$$

  CDD

  0  0  0  0  0  0            999 V2000
M  END
> <Molecule Name>
CVD-0009098

> <SMILES>
Cc1cc2n(n1)c1ncccc1n(CC(=O)NCc1cccs1)c2=O

$$$$

  CDD

  0  0  0  0  0  0            999 V2000
M  END
> <Molecule Name>
CVD-0009097

> <SMILES>
O=C(CC1C[C@@H]2CC[C@@H](C1)N2)Nc1ccc(nc1)N1CCNC(=O)C1

$$$$

  CDD

  0  0  0  0  0  0            999 V2000
M  END
> <Molecule Name>
CVD-0009096

> <SMILES>
O=c1[nH]c2cccnc2c(=O)n1Cc1ccccn1

$$$$

  CDD

  0  0  0  0  0  0            999 V2000
M  END
> <Molecule Name>
CVD-0009095

> <SMILES>
O[C@@H]1C[C@@H](N(C1)S(=O)(=O)c1ccc(F)cc1)C(=O)Nc1cccnc1

$$$$

  CDD

  0  0  0  0  0  0            999 V2000
M  END
> <Molecule Name>
CVD-0009094

> <SMILES>
Fc1ccc(NC(=O)Cn2c3cccnc3c(=O)n(Cc3ccccc3)c2=O)c(F)c1

$$$$

  CDD

  0  0  0  0  0  0            999 V2000
M  END
> <Molecule Name>
CVD-0009093

> <SMILES>
CCn1c2ncccc2n(CC(=O)NCc2cccs2)c(=O)c1=O

$$$$

  CDD

  0  0  0  0  0  0            999 V2000
M  END
> <Molecule Name>
CVD-0009092

> <SMILES>
COc1ccc(CNC(=O)Cn2c3cccnc3n(C)c(=O)c2=O)cc1

$$$$

  CDD

  0  0  0  0  0  0            999 V2000
M  END
> <Molecule Name>
CVD-0009091

> <SMILES>
C[C@@H](NC(=O)c1cn(cn1)-c1ccc(NC(C)=O)cn1)c1ccc(F)cc1

$$$$

  CDD

  0  0  0  0  0  0            999 V2000
M  END
> <Molecule Name>
CVD-0009090

> <SMILES>
Cc1nnc2n1c1ncccc1n(CC(=O)NCc1cccs1)c2=O

$$$$

  CDD

  0  0  0  0  0  0            999 V2000
M  END
> <Molecule Name>
CVD-0009089

> <SMILES>
Fc1ccc(F)c(CNC(=O)Cn2c3cccnc3n(-c3ccccc3)c2=O)c1

$$$$

  CDD

  0  0  0  0  0  0            999 V2000
M  END
> <Molecule Name>
CVD-0009088

> <SMILES>
Fc1ccc(cc1)-n1c2ncccc2n(CC(=O)NCc2ccc(Cl)cc2)c1=O

$$$$

  CDD

  0  0  0  0  0  0            999 V2000
M  END
> <Molecule Name>
CVD-0009087

> <SMILES>
COc1cc(Cn2c3cccnc3c(=O)n(Cc3ccccc3)c2=O)cc(OC)c1

$$$$

  CDD

  0  0  0  0  0  0            999 V2000
M  END
> <Molecule Name>
CVD-0009086

> <SMILES>
CCn1c2ncccc2n(CC(=O)NCc2ccccc2F)c(=O)c1=O

$$$$

  CDD

  0  0  0  0  0  0            999 V2000
M  END
> <Molecule Name>
CVD-0009085

> <SMILES>
CN1CCN(CC1)C(=O)Cn1c2cccnc2n(-c2ccccc2)c1=O

$$$$

  CDD

  0  0  0  0  0  0            999 V2000
M  END
> <Molecule Name>
CVD-0009084

> <SMILES>
Cn1c2ccccc2n(CC(=O)Nc2cccnc2)c1=O

$$$$

  CDD

  0  0  0  0  0  0            999 V2000
M  END
> <Molecule Name>
CVD-0009083

> <SMILES>
CN1CCC(CC1)N1CCN(CC1)C(=O)Cn1c2cccnc2n(-c2ccc(C)cc2)c1=O

$$$$

  CDD

  0  0  0  0  0  0            999 V2000
M  END
> <Molecule Name>
CVD-0009082

> <SMILES>
Clc1ncccc1NC(=O)CSc1nc2ccccc2c(=O)n1Cc1ccco1

$$$$

  CDD

  0  0  0  0  0  0            999 V2000
M  END
> <Molecule Name>
CVD-0009081

> <SMILES>
O=C(Cn1c2cccnc2c(=O)n(Cc2ccccc2)c1=O)NC[C@@H]1CCCO1

$$$$

  CDD

  0  0  0  0  0  0            999 V2000
M  END
> <Molecule Name>
CVD-0009080

> <SMILES>
CC[C@@H](C(=O)Nc1cccnc1)n1c(=O)[nH]c2ccccc2c1=O

$$$$

  CDD

  0  0  0  0  0  0            999 V2000
M  END
> <Molecule Name>
CVD-0009079

> <SMILES>
CN1[C@@H]([C@@H](CC1=O)C(=O)Nc1cnccc1C)c1cccc(Cl)c1

$$$$

  CDD

  0  0  0  0  0  0            999 V2000
M  END
> <Molecule Name>
CVD-0009078

> <SMILES>
CCn1c2ncccc2n(CC(=O)NCc2cccc(F)c2)c(=O)c1=O

$$$$

  CDD

  0  0  0  0  0  0            999 V2000
M  END
> <Molecule Name>
CVD-0009077

> <SMILES>
O=C(C[C@@H]1COCCN1)NCc1ccc(cc1)C(=O)Nc1cccnc1

$$$$

  CDD

  0  0  0  0  0  0            999 V2000
M  END
> <Molecule Name>
CVD-0009076

> <SMILES>
COc1ccc(cc1)-n1c2ncccc2n(CC(=O)NCc2ccccc2)c1=O

$$$$

  CDD

  0  0  0  0  0  0            999 V2000
M  END
> <Molecule Name>
CVD-0009075

> <SMILES>
Cc1cc2n(n1)c1ncccc1n(CC(=O)NCc1cccc(Cl)c1)c2=O

$$$$

  CDD

  0  0  0  0  0  0            999 V2000
M  END
> <Molecule Name>
CVD-0009074

> <SMILES>
Cc1nnc2n1c1ncccc1n(CC(=O)NCc1cccc(F)c1)c2=O

$$$$

  CDD

  0  0  0  0  0  0            999 V2000
M  END
> <Molecule Name>
CVD-0009073

> <SMILES>
CCc1nnc2n1c1ncccc1n(CC(=O)NCc1cccc(F)c1)c2=O

$$$$

  CDD

  0  0  0  0  0  0            999 V2000
M  END
> <Molecule Name>
CVD-0009072

> <SMILES>
CNC(=O)Cn1c2cccnc2c(=O)n(Cc2ccc(Cl)cc2)c1=O

$$$$

  CDD

  0  0  0  0  0  0            999 V2000
M  END
> <Molecule Name>
CVD-0009071

> <SMILES>
Cc1cc2n(n1)c1ncccc1n(CC(=O)NCc1ccc(F)cc1)c2=O

$$$$

  CDD

  0  0  0  0  0  0            999 V2000
M  END
> <Molecule Name>
CVD-0009070

> <SMILES>
COc1cccc(CO[C@@H](C)C(=O)N2CC(=O)Nc3cccnc23)c1

$$$$

  CDD

  0  0  0  0  0  0            999 V2000
M  END
> <Molecule Name>
CVD-0009069

> <SMILES>
Cc1nnc2n1c1ncccc1n(CC(=O)NCc1ccccc1F)c2=O

$$$$

  CDD

  0  0  0  0  0  0            999 V2000
M  END
> <Molecule Name>
CVD-0009068

> <SMILES>
Cc1nnc2n1c1ncccc1n(CC(=O)NCc1ccc(F)cc1)c2=O

$$$$

  CDD

  0  0  0  0  0  0            999 V2000
M  END
> <Molecule Name>
CVD-0009067

> <SMILES>
Clc1ccc(CNC(=O)Cn2c3cccnc3n3cnnc3c2=O)cc1

$$$$

  CDD

  0  0  0  0  0  0            999 V2000
M  END
> <Molecule Name>
CVD-0009066

> <SMILES>
Cc1nnc2n1c1ncccc1n(CC(=O)NCc1cccc(Cl)c1)c2=O

$$$$

  CDD

  0  0  0  0  0  0            999 V2000
M  END
> <Molecule Name>
CVD-0009065

> <SMILES>
CCc1nnc2n1c1ncccc1n(CC(=O)NCc1ccc(F)cc1)c2=O

$$$$

  CDD

  0  0  0  0  0  0            999 V2000
M  END
> <Molecule Name>
CVD-0009064

> <SMILES>
CCc1nnc2n1c1ncccc1n(CC(=O)NCc1cccc(Cl)c1)c2=O

$$$$

  CDD

  0  0  0  0  0  0            999 V2000
M  END
> <Molecule Name>
CVD-0009063

> <SMILES>
CCc1nnc2n1c1ncccc1n(CC(=O)NCc1ccccc1F)c2=O

$$$$

  CDD

  0  0  0  0  0  0            999 V2000
M  END
> <Molecule Name>
CVD-0009062

> <SMILES>
COc1ccccc1CNC(=O)Cn1c2cccnc2n(C)c(=O)c1=O

$$$$

  CDD

  0  0  0  0  0  0            999 V2000
M  END
> <Molecule Name>
CVD-0009061

> <SMILES>
Cn1c2ncccc2n(CC(=O)NCc2cccs2)c(=O)c1=O

$$$$

  CDD

  0  0  0  0  0  0            999 V2000
M  END
> <Molecule Name>
CVD-0009060

> <SMILES>
Cc1nnc2n1c1ncccc1n(CC(=O)NCc1ccc(Cl)cc1)c2=O

$$$$

  CDD

  0  0  0  0  0  0            999 V2000
M  END
> <Molecule Name>
CVD-0009059

> <SMILES>
Cc1cc2n(n1)c1ncccc1n(CC(=O)NCc1ccc(Cl)cc1)c2=O

$$$$

  CDD

  0  0  0  0  0  0            999 V2000
M  END
> <Molecule Name>
CVD-0009058

> <SMILES>
CCc1nnc2n1c1ncccc1n(CC(=O)NCc1ccc(Cl)cc1)c2=O

$$$$

  CDD

  0  0  0  0  0  0            999 V2000
M  END
> <Molecule Name>
CVD-0009057

> <SMILES>
COc1cccc(CNC(=O)Cn2c3cccnc3n(C)c(=O)c2=O)c1

$$$$

  CDD

  0  0  0  0  0  0            999 V2000
M  END
> <Molecule Name>
CVD-0009056

> <SMILES>
Cn1c2ncccc2n(CC(=O)NCc2cccc(F)c2)c(=O)c1=O

$$$$

  CDD

  0  0  0  0  0  0            999 V2000
M  END
> <Molecule Name>
CVD-0009055

> <SMILES>
Clc1ncccc1NC(=O)Cn1c2ccccc2c(=O)n(Cc2ccco2)c1=O

$$$$

  CDD

  0  0  0  0  0  0            999 V2000
M  END
> <Molecule Name>
CVD-0009054

> <SMILES>
Clc1cccc(c1)C(=O)NCc1nncn1C1CC1

$$$$

  CDD

  0  0  0  0  0  0            999 V2000
M  END
> <Molecule Name>
CVD-0009053

> <SMILES>
Clc1cccc(CC(=O)Nc2nncn2Cc2ccccc2)c1

$$$$

  CDD

  0  0  0  0  0  0            999 V2000
M  END
> <Molecule Name>
CVD-0009052

> <SMILES>
Clc1cccc(CC(=O)Nc2nncn2-c2ccccc2)c1

$$$$

  CDD

  0  0  0  0  0  0            999 V2000
M  END
> <Molecule Name>
CVD-0009051

> <SMILES>
Clc1cccc(c1)C1(CCCCC1)C(=O)Nc1nncn1C1CC1

$$$$

  CDD

  0  0  0  0  0  0            999 V2000
M  END
> <Molecule Name>
CVD-0009050

> <SMILES>
Clc1cccc(c1)C1(CCOCC1)C(=O)Nc1nncn1C1CC1

$$$$

  CDD

  0  0  0  0  0  0            999 V2000
M  END
> <Molecule Name>
CVD-0009049

> <SMILES>
FC(F)(C(=O)Nc1nncn1C1CC1)c1cccc(Cl)c1

$$$$

  CDD

  0  0  0  0  0  0            999 V2000
M  END
> <Molecule Name>
CVD-0009048

> <SMILES>
Clc1cccc(\C=C\C(=O)Nc2nncn2C2CC2)c1

$$$$

  CDD

  0  0  0  0  0  0            999 V2000
M  END
> <Molecule Name>
CVD-0009047

> <SMILES>
Clc1cccc(CCC(=O)Nc2nncn2C2CC2)c1

$$$$

  CDD

  0  0  0  0  0  0            999 V2000
M  END
> <Molecule Name>
CVD-0009046

> <SMILES>
Cc1occc1-c1nnc(SCc2cc(=O)oc3cc(O)ccc23)o1

$$$$

  CDD

  0  0  0  0  0  0            999 V2000
M  END
> <Molecule Name>
CVD-0009045

> <SMILES>
Cn1c2nc(NNC(=O)c3cc(Cl)ccc3O)n(CCCc3ccccc3)c2c(=O)n(C)c1=O

$$$$

  CDD

  0  0  0  0  0  0            999 V2000
M  END
> <Molecule Name>
CVD-0009044

> <SMILES>
CCCCn1c(SCc2cc(no2)C(C)=O)n[nH]c1=O

$$$$

  CDD

  0  0  0  0  0  0            999 V2000
M  END
> <Molecule Name>
CVD-0009043

> <SMILES>
OC(=O)CCC(=O)N1N=C(CC1c1cccc(F)c1)c1c(-c2ccccc2)c2cc(Br)ccc2[nH]c1=O

$$$$

  CDD

  0  0  0  0  0  0            999 V2000
M  END
> <Molecule Name>
CVD-0009042

> <SMILES>
Clc1cc(CSc2n[nH]c(=O)n2C2CC2)cc2OCOc12

$$$$

  CDD

  0  0  0  0  0  0            999 V2000
M  END
> <Molecule Name>
CVD-0009041

> <SMILES>
CCOc1cc2CC(C)Oc2cc1CSc1n[nH]c(=O)n1C1CC1

$$$$

  CDD

  0  0  0  0  0  0            999 V2000
M  END
> <Molecule Name>
CVD-0009040

> <SMILES>
CCOc1cc2CC(C)Oc2cc1CSc1n[nH]c(=O)n1CC

$$$$

  CDD

  0  0  0  0  0  0            999 V2000
M  END
> <Molecule Name>
CVD-0009039

> <SMILES>
Clc1ccc2OC(Cc2c1)C(=O)Nn1cnc2scc(-c3cccs3)c2c1=O

$$$$

  CDD

  0  0  0  0  0  0            999 V2000
M  END
> <Molecule Name>
CVD-0009038

> <SMILES>
Cc1occc1-c1nnc(SCC(=O)c2c(N)n(C3CC3)c(=O)[nH]c2=O)o1

$$$$

  CDD

  0  0  0  0  0  0            999 V2000
M  END
> <Molecule Name>
CVD-0009037

> <SMILES>
Clc1ccc2OCC(Cc2c1)C(=O)Nn1cnc2ccccc2c1=O

$$$$

  CDD

  0  0  0  0  0  0            999 V2000
M  END
> <Molecule Name>
CVD-0009036

> <SMILES>
O=c1[nH]nc(SC2c3ccccc3-c3ccccc23)n1C1CC1

$$$$

  CDD

  0  0  0  0  0  0            999 V2000
M  END
> <Molecule Name>
CVD-0009035

> <SMILES>
Nn1c(SCC(=O)c2ccc(Cl)cc2)nc2ccccc2c1=O

$$$$

  CDD

  0  0  0  0  0  0            999 V2000
M  END
> <Molecule Name>
CVD-0009034

> <SMILES>
CCn1c(NNC(=O)COc2ccc(Cl)c(Cl)c2)nc2ccccc2c1=O

$$$$

  CDD

  0  0  0  0  0  0            999 V2000
M  END
> <Molecule Name>
CVD-0009033

> <SMILES>
CN1CCN(CC1)c1ccc(NC(=O)c2cc(=O)[nH]c3ccccc23)cc1

$$$$

  CDD

  0  0  0  0  0  0            999 V2000
M  END
> <Molecule Name>
CVD-0009032

> <SMILES>
CCN(CC)S(=O)(=O)c1ccc2[nH]c(=O)cc(C(=O)Oc3ccc4OCOc4c3)c2c1

$$$$

  CDD

  0  0  0  0  0  0            999 V2000
M  END
> <Molecule Name>
CVD-0009031

> <SMILES>
O=C(Nc1ccccc1N1CCCCC1)c1cc(=O)[nH]c2ccccc12

$$$$

  CDD

  0  0  0  0  0  0            999 V2000
M  END
> <Molecule Name>
CVD-0009030

> <SMILES>
Brc1cccc(CSc2n[nH]c(=O)n2CCc2ccccc2)c1

$$$$

  CDD

  0  0  0  0  0  0            999 V2000
M  END
> <Molecule Name>
CVD-0009029

> <SMILES>
CCOC(=O)Nc1ccc2c(CSc3n[nH]c(=O)n3CCc3ccccc3)cc(=O)oc2c1

$$$$

  CDD

  0  0  0  0  0  0            999 V2000
M  END
> <Molecule Name>
CVD-0009028

> <SMILES>
Clc1cccc(CSc2n[nH]c(=O)n2CCc2ccccc2)c1

$$$$

  CDD

  0  0  0  0  0  0            999 V2000
M  END
> <Molecule Name>
CVD-0009027

> <SMILES>
COc1ccc2c(CSc3nnc(o3)-c3ccoc3C)cc(=O)oc2c1

$$$$

  CDD

  0  0  0  0  0  0            999 V2000
M  END
> <Molecule Name>
CVD-0009026

> <SMILES>
Cc1cccc(N2CCN(CC2)C(=O)c2cc(=O)[nH]c3ccccc23)c1C

$$$$

  CDD

  0  0  0  0  0  0            999 V2000
M  END
> <Molecule Name>
CVD-0009025

> <SMILES>
O=C(N1CCN(Cc2cccc3ccccc23)CC1)c1cc(=O)[nH]c2ccccc12

$$$$

  CDD

  0  0  0  0  0  0            999 V2000
M  END
> <Molecule Name>
CVD-0009024

> <SMILES>
Cc1cccc(NC2CCN(CC2)C(=O)c2cc(=O)c3cc(Br)ccc3[nH]2)c1

$$$$

  CDD

  0  0  0  0  0  0            999 V2000
M  END
> <Molecule Name>
CVD-0009023

> <SMILES>
Clc1ccc(CN2CCC(CC2)NC(=O)Nn2cnc3ccccc23)cc1

$$$$

  CDD

  0  0  0  0  0  0            999 V2000
M  END
> <Molecule Name>
CVD-0009022

> <SMILES>
Brc1cccc(CSc2n[nH]c(=O)n2C2CC2)c1

$$$$

  CDD

  0  0  0  0  0  0            999 V2000
M  END
> <Molecule Name>
CVD-0009021

> <SMILES>
CC(C)(C)S[C@H]1COc2ccc(Cl)cc2[C@@H]1C(=O)Nc1nncn1C1CC1

$$$$

  CDD

  0  0  0  0  0  0            999 V2000
M  END
> <Molecule Name>
CVD-0009020

> <SMILES>
CCC[C@H]1COc2ccc(Cl)cc2[C@@H]1C(=O)Nc1nncn1C1CC1

$$$$

  CDD

  0  0  0  0  0  0            999 V2000
M  END
> <Molecule Name>
CVD-0009019

> <SMILES>
O[C@@H]1CC[C@@H](C(=O)Nc2nncn2C2CC2)c2cc(Cl)ccc12

$$$$

  CDD

  0  0  0  0  0  0            999 V2000
M  END
> <Molecule Name>
CVD-0009018

> <SMILES>
Clc1ccc2OC[C@@H]3CCC[C@]3(C(=O)Nc3nncn3C3CC3)c2c1

$$$$

  CDD

  0  0  0  0  0  0            999 V2000
M  END
> <Molecule Name>
CVD-0009017

> <SMILES>
Clc1ccc2OC[C@@H]3C[C@]3(C(=O)Nc3nncn3C3CC3)c2c1

$$$$

  CDD

  0  0  0  0  0  0            999 V2000
M  END
> <Molecule Name>
CVD-0009016

> <SMILES>
ClCC(=O)N1CCN(CC1)C(c1ccccc1)c1ccc2ccccc2c1

$$$$

  CDD

  0  0  0  0  0  0            999 V2000
M  END
> <Molecule Name>
CVD-0009015

> <SMILES>
ClCC(=O)N1CCN(CC1)C(c1cc(on1)-c1ccccc1)c1ccccc1

$$$$

  CDD

  0  0  0  0  0  0            999 V2000
M  END
> <Molecule Name>
CVD-0009014

> <SMILES>
FC(F)(F)c1cccc(c1)C(N1CCN(CC1)C(=O)CCl)c1ccccc1

$$$$

  CDD

  0  0  0  0  0  0            999 V2000
M  END
> <Molecule Name>
CVD-0009013

> <SMILES>
FC(F)(F)c1ccc(cc1)C(N1CCN(CC1)C(=O)CCl)c1ccccc1

$$$$

  CDD

  0  0  0  0  0  0            999 V2000
M  END
> <Molecule Name>
CVD-0009012

> <SMILES>
ClCC(=O)N1CCN(CC1)C(c1ccccc1)c1cccc(c1)-c1ccccc1

$$$$

  CDD

  0  0  0  0  0  0            999 V2000
M  END
> <Molecule Name>
CVD-0009011

> <SMILES>
ClCC(=O)N1CCN(CC1)C(c1ccccc1)c1ccc(cc1)-c1ccccc1

$$$$

  CDD

  0  0  0  0  0  0            999 V2000
M  END
> <Molecule Name>
CVD-0009010

> <SMILES>
Cc1ccccc1C(N1CCN(CC1)C(=O)CCl)c1ccccc1

$$$$

  CDD

  0  0  0  0  0  0            999 V2000
M  END
> <Molecule Name>
CVD-0009009

> <SMILES>
Cc1cccc(c1)C(N1CCN(CC1)C(=O)CCl)c1ccccc1

$$$$

  CDD

  0  0  0  0  0  0            999 V2000
M  END
> <Molecule Name>
CVD-0009008

> <SMILES>
Cc1ccc(cc1)C(N1CCN(CC1)C(=O)CCl)c1ccccc1

$$$$

  CDD

  0  0  0  0  0  0            999 V2000
M  END
> <Molecule Name>
CVD-0009007

> <SMILES>
Fc1ccccc1C(N1CCN(CC1)C(=O)CCl)c1ccccc1

$$$$

  CDD

  0  0  0  0  0  0            999 V2000
M  END
> <Molecule Name>
CVD-0009006

> <SMILES>
Fc1cccc(c1)C(N1CCN(CC1)C(=O)CCl)c1ccccc1

$$$$

  CDD

  0  0  0  0  0  0            999 V2000
M  END
> <Molecule Name>
CVD-0009005

> <SMILES>
Fc1ccc(cc1)C(N1CCN(CC1)C(=O)CCl)c1ccccc1

$$$$

  CDD

  0  0  0  0  0  0            999 V2000
M  END
> <Molecule Name>
CVD-0009004

> <SMILES>
ClCC(=O)N1CCN(CC1)C(c1ccccc1)c1ccccc1Cl

$$$$

  CDD

  0  0  0  0  0  0            999 V2000
M  END
> <Molecule Name>
CVD-0009003

> <SMILES>
ClCC(=O)N1CCN(CC1)C(c1ccccc1)c1ccc(Cl)cc1

$$$$

  CDD

  0  0  0  0  0  0            999 V2000
M  END
> <Molecule Name>
CVD-0009002

> <SMILES>
O=C(Nc1nncn1C1CC1)[C@H]1CCOc2ccccc12

$$$$

  CDD

  0  0  0  0  0  0            999 V2000
M  END
> <Molecule Name>
CVD-0009001

> <SMILES>
Clc1ccc2OCCC(C(=O)Nn3nncc3C3CC3)c2c1

$$$$

  CDD

  0  0  0  0  0  0            999 V2000
M  END
> <Molecule Name>
CVD-0009000

> <SMILES>
Clc1ccc2OCCC(C(=O)Nn3cnnc3C3CC3)c2c1

$$$$

  CDD

  0  0  0  0  0  0            999 V2000
M  END
> <Molecule Name>
CVD-0008999

> <SMILES>
Clc1ccc2OCCC(C(=O)Nn3cncc3C3CC3)c2c1

$$$$

  CDD

  0  0  0  0  0  0            999 V2000
M  END
> <Molecule Name>
CVD-0008998

> <SMILES>
CCCCC(C(=O)Nn1nncc1C1CC1)c1cccc(Cl)c1

$$$$

  CDD

  0  0  0  0  0  0            999 V2000
M  END
> <Molecule Name>
CVD-0008997

> <SMILES>
CCCCC(C(=O)Nn1cnnc1C1CC1)c1cccc(Cl)c1

$$$$

  CDD

  0  0  0  0  0  0            999 V2000
M  END
> <Molecule Name>
CVD-0008996

> <SMILES>
CCCCC(C(=O)Nn1cncc1C1CC1)c1cccc(Cl)c1

$$$$

  CDD

  0  0  0  0  0  0            999 V2000
M  END
> <Molecule Name>
CVD-0008995

> <SMILES>
Clc1cccc(CC(=O)Nn2nncc2C2CC2)c1

$$$$

  CDD

  0  0  0  0  0  0            999 V2000
M  END
> <Molecule Name>
CVD-0008994

> <SMILES>
Clc1cccc(CC(=O)Nn2cnnc2C2CC2)c1

$$$$

  CDD

  0  0  0  0  0  0            999 V2000
M  END
> <Molecule Name>
CVD-0008993

> <SMILES>
CCCCC(C(=O)Nc1cnccc1C)c1cc(Cl)cc(OC2CC(=O)N2)c1

$$$$

  CDD

  0  0  0  0  0  0            999 V2000
M  END
> <Molecule Name>
CVD-0008992

> <SMILES>
Clc1cccc(CC(=O)Nn2cncc2C2CC2)c1

$$$$

  CDD

  0  0  0  0  0  0            999 V2000
M  END
> <Molecule Name>
CVD-0008991

> <SMILES>
Clc1cccc(CC(=O)Nc2nncn2C2CC2)c1

$$$$

  CDD

  0  0  0  0  0  0            999 V2000
M  END
> <Molecule Name>
CVD-0008990

> <SMILES>
CCCCN(C(=O)Nc1nncn1C1CC1)c1cccc(Cl)c1

$$$$

  CDD

  0  0  0  0  0  0            999 V2000
M  END
> <Molecule Name>
CVD-0008989

> <SMILES>
CCCCN(C(=O)Nn1cnc2ccccc2c1=O)c1cccc(Cl)c1

$$$$

  CDD

  0  0  0  0  0  0            999 V2000
M  END
> <Molecule Name>
CVD-0008988

> <SMILES>
CCCCN(C(=O)Nn1cnc2ccccc12)c1cccc(Cl)c1

$$$$

  CDD

  0  0  0  0  0  0            999 V2000
M  END
> <Molecule Name>
CVD-0008987

> <SMILES>
COc1cc(Cl)cc(OC(=O)Nn2cnc3ccccc3c2=O)c1

$$$$

  CDD

  0  0  0  0  0  0            999 V2000
M  END
> <Molecule Name>
CVD-0008986

> <SMILES>
COc1cc(Cl)cc(OC(=O)Nn2cnc3ccccc23)c1

$$$$

  CDD

  0  0  0  0  0  0            999 V2000
M  END
> <Molecule Name>
CVD-0008985

> <SMILES>
COc1cc(Cl)cc(OC(=O)Nc2nncn2C2CC2)c1

$$$$

  CDD

  0  0  0  0  0  0            999 V2000
M  END
> <Molecule Name>
CVD-0008984

> <SMILES>
Clc1ccc2OCCN(C(=O)Nn3cnc4ccccc4c3=O)c2c1

$$$$

  CDD

  0  0  0  0  0  0            999 V2000
M  END
> <Molecule Name>
CVD-0008983

> <SMILES>
Clc1ccc2OCCN(C(=O)Nn3cnc4ccccc34)c2c1

$$$$

  CDD

  0  0  0  0  0  0            999 V2000
M  END
> <Molecule Name>
CVD-0008982

> <SMILES>
Clc1ccc2OCCC(C(=O)Nn3cnc4ccccc4c3=O)c2c1

$$$$

  CDD

  0  0  0  0  0  0            999 V2000
M  END
> <Molecule Name>
CVD-0008981

> <SMILES>
Clc1ccc2OCCC(C(=O)Nn3cnc4ccccc34)c2c1

$$$$

  CDD

  0  0  0  0  0  0            999 V2000
M  END
> <Molecule Name>
CVD-0008980

> <SMILES>
O=C(Nc1nncn1C1CC1)c1cccc2ccccc12

$$$$

  CDD

  0  0  0  0  0  0            999 V2000
M  END
> <Molecule Name>
CVD-0008979

> <SMILES>
Clc1ccc2OCC[C@@H](C(=O)N3CCC(C4CCCNC4)n4nnnc34)c2c1

$$$$

  CDD

  0  0  0  0  0  0            999 V2000
M  END
> <Molecule Name>
CVD-0008978

> <SMILES>
Clc1ccc2OCC[C@@H](C(=O)Nc3nnnn3C3CCNCC3)c2c1

$$$$

  CDD

  0  0  0  0  0  0            999 V2000
M  END
> <Molecule Name>
CVD-0008977

> <SMILES>
NCCCc1nnc(NC(=O)[C@@H]2CCOc3ccc(Cl)cc23)[nH]1

$$$$

  CDD

  0  0  0  0  0  0            999 V2000
M  END
> <Molecule Name>
CVD-0008976

> <SMILES>
Clc1ccc2OCC[C@@H](C(=O)Nc3nc(n[nH]3)C3CCNCC3)c2c1

$$$$

  CDD

  0  0  0  0  0  0            999 V2000
M  END
> <Molecule Name>
CVD-0008975

> <SMILES>
CC(C)NCCc1n[nH]c(NC(=O)[C@@H]2CCOc3ccc(Cl)cc23)n1

$$$$

  CDD

  0  0  0  0  0  0            999 V2000
M  END
> <Molecule Name>
CVD-0008974

> <SMILES>
NCCc1n[nH]c(NC(=O)[C@@H]2CCOc3ccc(Cl)cc23)n1

$$$$

  CDD

  0  0  0  0  0  0            999 V2000
M  END
> <Molecule Name>
CVD-0008973

> <SMILES>
Clc1ccc2OCC[C@@H](C(=O)N3CC4CNCCC4n4nnnc34)c2c1

$$$$

  CDD

  0  0  0  0  0  0            999 V2000
M  END
> <Molecule Name>
CVD-0008972

> <SMILES>
Clc1ccc2OCC[C@@H](C(=O)Nc3nncn3C3CCNCC3)c2c1

$$$$

  CDD

  0  0  0  0  0  0            999 V2000
M  END
> <Molecule Name>
CVD-0008971

> <SMILES>
CCOC(=O)[C@@H]1CCCN(C1)C(=O)Cn1c2cccnc2n(C)c(=O)c1=O

$$$$

  CDD

  0  0  0  0  0  0            999 V2000
M  END
> <Molecule Name>
CVD-0008970

> <SMILES>
COc1ccc(NC(=O)CCc2c(C)nc([nH]c2=O)N2CCOCC2)cn1

$$$$

  CDD

  0  0  0  0  0  0            999 V2000
M  END
> <Molecule Name>
CVD-0008969

> <SMILES>
COc1ncccc1NC(=O)N(CCN(C)C)Cc1cccc(O)c1

$$$$

  CDD

  0  0  0  0  0  0            999 V2000
M  END
> <Molecule Name>
CVD-0008968

> <SMILES>
CN1CCN(CC1)[C@@H](CNC(=O)C(=O)Nc1cccnc1)c1ccc(F)cc1

$$$$

  CDD

  0  0  0  0  0  0            999 V2000
M  END
> <Molecule Name>
CVD-0008967

> <SMILES>
CN1C(=O)[C@@H](CC(=O)NCc2ccccn2)Sc2ncccc12

$$$$

  CDD

  0  0  0  0  0  0            999 V2000
M  END
> <Molecule Name>
CVD-0008966

> <SMILES>
CCCNC(=O)CCC(=O)N1Cc2cccc(OC)c2Oc2ncccc12

$$$$

  CDD

  0  0  0  0  0  0            999 V2000
M  END
> <Molecule Name>
CVD-0008965

> <SMILES>
Fc1cc(F)cc(NC(=O)Cn2c3cccnc3n3nc(cc3c2=O)C2CC2)c1

$$$$

  CDD

  0  0  0  0  0  0            999 V2000
M  END
> <Molecule Name>
CVD-0008964

> <SMILES>
Nc1nc(SCC(=O)Nc2cccnc2Cl)c(cc1C#N)C#N

$$$$

  CDD

  0  0  0  0  0  0            999 V2000
M  END
> <Molecule Name>
CVD-0008963

> <SMILES>
OC(=O)[C@H](CC(=O)Nc1cccnc1)NCc1cccnc1

$$$$

  CDD

  0  0  0  0  0  0            999 V2000
M  END
> <Molecule Name>
CVD-0008962

> <SMILES>
O=C(Nc1cccnc1)C1CCN(CC1)S(=O)(=O)c1cccnc1

$$$$

  CDD

  0  0  0  0  0  0            999 V2000
M  END
> <Molecule Name>
CVD-0008961

> <SMILES>
CC[C@@H](NC(=O)Cn1c2cccnc2n(-c2ccc(F)cc2)c1=O)c1ccc(OC)cc1

$$$$

  CDD

  0  0  0  0  0  0            999 V2000
M  END
> <Molecule Name>
CVD-0008960

> <SMILES>
Fc1ccc(Cn2c3cccnc3n(CCNC(=O)[C@H]3CCOC3)c2=O)cc1

$$$$

  CDD

  0  0  0  0  0  0            999 V2000
M  END
> <Molecule Name>
CVD-0008959

> <SMILES>
CCCCNC(=O)C1CCN(CC1)c1ccc(NC(=O)[C@@H]2CCCO2)cn1

$$$$

  CDD

  0  0  0  0  0  0            999 V2000
M  END
> <Molecule Name>
CVD-0008958

> <SMILES>
Clc1ccc(Cn2c3cccnc3c(=O)n(Cc3ccncc3)c2=O)cc1Cl

$$$$

  CDD

  0  0  0  0  0  0            999 V2000
M  END
> <Molecule Name>
CVD-0008957

> <SMILES>
O=C(N1CCC[C@@H](C1)n1c2ncccc2n(CC2CC2)c1=O)c1cc[nH]n1

$$$$

  CDD

  0  0  0  0  0  0            999 V2000
M  END
> <Molecule Name>
CVD-0008956

> <SMILES>
Clc1cccc(c1)N1CCN(CC1)C(=O)COCC(=O)Nc1cccnc1

$$$$

  CDD

  0  0  0  0  0  0            999 V2000
M  END
> <Molecule Name>
CVD-0008955

> <SMILES>
C[C@]1(NC(=O)N(CC(=O)Nc2cccnc2Cl)C1=O)c1ccc(Cl)cc1Cl

$$$$

  CDD

  0  0  0  0  0  0            999 V2000
M  END
> <Molecule Name>
CVD-0008954

> <SMILES>
CCCn1c2ccccc2n(CCC(=O)Nc2ccc(N)nc2)c1=O

$$$$

  CDD

  0  0  0  0  0  0            999 V2000
M  END
> <Molecule Name>
CVD-0008953

> <SMILES>
O=C(CCC(=O)N1Cc2ccccc2Oc2ncccc12)N1CCC2(CC1)OCCO2

$$$$

  CDD

  0  0  0  0  0  0            999 V2000
M  END
> <Molecule Name>
CVD-0008952

> <SMILES>
O=C(CCCN1C(=O)CSc2ncccc12)NCc1ccc2OCOc2c1

$$$$

  CDD

  0  0  0  0  0  0            999 V2000
M  END
> <Molecule Name>
CVD-0008951

> <SMILES>
COc1cc(CNC(=O)Cn2c3cccnc3n(-c3ccccc3)c2=O)cc(OC)c1

$$$$

  CDD

  0  0  0  0  0  0            999 V2000
M  END
> <Molecule Name>
CVD-0008950

> <SMILES>
O=C(Nc1cccnc1SCc1ccccn1)[C@@H]1CCCO1

$$$$

  CDD

  0  0  0  0  0  0            999 V2000
M  END
> <Molecule Name>
CVD-0008949

> <SMILES>
Clc1cc(NC(=O)C[C@@H]2COCCN2)ccc1C(=O)Nc1cccnc1

$$$$

  CDD

  0  0  0  0  0  0            999 V2000
M  END
> <Molecule Name>
CVD-0008948

> <SMILES>
Fc1ccc(NC(=O)Cn2c3cccnc3c(=O)n(Cc3ccccn3)c2=O)cc1

$$$$

  CDD

  0  0  0  0  0  0            999 V2000
M  END
> <Molecule Name>
CVD-0008947

> <SMILES>
CC1(C)S[C@@H]2N(C(=O)c3ccccc23)[C@@]1(C)C(=O)NCCC(=O)Nc1cccnc1

$$$$

  CDD

  0  0  0  0  0  0            999 V2000
M  END
> <Molecule Name>
CVD-0008946

> <SMILES>
C[C@@H](NC(=O)C[C@H]1Sc2ncccc2N(C)C1=O)c1cccnc1

$$$$

  CDD

  0  0  0  0  0  0            999 V2000
M  END
> <Molecule Name>
CVD-0008945

> <SMILES>
NC(=O)Cn1c2cccnc2c(=O)n(Cc2cccnc2)c1=O

$$$$

  CDD

  0  0  0  0  0  0            999 V2000
M  END
> <Molecule Name>
CVD-0008944

> <SMILES>
CCN1[C@H]([C@@H](CCC1=O)C(=O)Nc1ccc(C)nc1O)c1ccncc1

$$$$

  CDD

  0  0  0  0  0  0            999 V2000
M  END
> <Molecule Name>
CVD-0008943

> <SMILES>
COc1ccc(CNC(=O)Cn2c3cccnc3n(-c3ccc(F)cc3)c2=O)c(OC)c1

$$$$

  CDD

  0  0  0  0  0  0            999 V2000
M  END
> <Molecule Name>
CVD-0008942

> <SMILES>
COc1ccc(CNC(=O)Cn2c3cccnc3n(-c3ccc(F)cc3)c2=O)cc1OC

$$$$

  CDD

  0  0  0  0  0  0            999 V2000
M  END
> <Molecule Name>
CVD-0008941

> <SMILES>
COc1cccc(CNC(=O)CN2C(=O)CSc3ncccc23)c1OC

$$$$

  CDD

  0  0  0  0  0  0            999 V2000
M  END
> <Molecule Name>
CVD-0008940

> <SMILES>
COc1cccc(CNC(=O)Cn2c3cccnc3n(-c3ccc(F)cc3)c2=O)c1

$$$$

  CDD

  0  0  0  0  0  0            999 V2000
M  END
> <Molecule Name>
CVD-0008939

> <SMILES>
COc1cc(Cn2c3cccnc3c(=O)n(Cc3ccc(F)cc3)c2=O)cc(OC)c1

$$$$

  CDD

  0  0  0  0  0  0            999 V2000
M  END
> <Molecule Name>
CVD-0008938

> <SMILES>
Fc1ccc(Cn2c3cccnc3n(CCNC(=O)[C@@H]3CCCO3)c2=O)cc1

$$$$

  CDD

  0  0  0  0  0  0            999 V2000
M  END
> <Molecule Name>
CVD-0008937

> <SMILES>
O=C(CCC(=O)N1Cc2ccccc2Oc2ncccc12)NCc1ccco1

$$$$

  CDD

  0  0  0  0  0  0            999 V2000
M  END
> <Molecule Name>
CVD-0008936

> <SMILES>
C[C@@H](N1CCN(CC(=O)Nc2cccnc2)CC1)c1cccnc1

$$$$

  CDD

  0  0  0  0  0  0            999 V2000
M  END
> <Molecule Name>
CVD-0008935

> <SMILES>
C[C@@H]1OCCN[C@@H]1C(=O)Nc1ccc(NC(=O)C2CC2)nc1

$$$$

  CDD

  0  0  0  0  0  0            999 V2000
M  END
> <Molecule Name>
CVD-0008934

> <SMILES>
Clc1ccc(NC(=O)Cn2c3cccnc3c(=O)n(Cc3ccccn3)c2=O)cc1

$$$$

  CDD

  0  0  0  0  0  0            999 V2000
M  END
> <Molecule Name>
CVD-0008933

> <SMILES>
O=C(Cn1c2cccnc2c(=O)n(Cc2cccs2)c1=O)NCc1ccco1

$$$$

  CDD

  0  0  0  0  0  0            999 V2000
M  END
> <Molecule Name>
CVD-0008932

> <SMILES>
Fc1ccc(Cn2c(=O)n(CC(=O)NCc3ccco3)c3cccnc3c2=O)cc1

$$$$

  CDD

  0  0  0  0  0  0            999 V2000
M  END
> <Molecule Name>
CVD-0008931

> <SMILES>
COc1ccc(Cn2c(=O)n(Cc3cc(OC)cc(OC)c3)c3cccnc3c2=O)cc1

$$$$

  CDD

  0  0  0  0  0  0            999 V2000
M  END
> <Molecule Name>
CVD-0008930

> <SMILES>
Clc1cccc(NC(=O)Cn2c3cccnc3c(=O)n(Cc3ccncc3)c2=O)c1

$$$$

  CDD

  0  0  0  0  0  0            999 V2000
M  END
> <Molecule Name>
CVD-0008929

> <SMILES>
CCCNC(=O)Cn1c2cccnc2c(=O)n(Cc2ccc3OCOc3c2)c1=O

$$$$

  CDD

  0  0  0  0  0  0            999 V2000
M  END
> <Molecule Name>
CVD-0008928

> <SMILES>
Cc1ccc(NC(=O)Cn2c3cccnc3c(=O)n(Cc3ccncc3)c2=O)cc1Cl

$$$$

  CDD

  0  0  0  0  0  0            999 V2000
M  END
> <Molecule Name>
CVD-0008927

> <SMILES>
COc1ccc(cc1)N(C)S(=O)(=O)c1csc(c1)C(=O)Nc1cccnc1

$$$$

  CDD

  0  0  0  0  0  0            999 V2000
M  END
> <Molecule Name>
CVD-0008926

> <SMILES>
CCn1cnc(c1)S(=O)(=O)N1CCC[C@H](C1)C(=O)Nc1cccnc1

$$$$

  CDD

  0  0  0  0  0  0            999 V2000
M  END
> <Molecule Name>
CVD-0008925

> <SMILES>
C[C@H]1C[C@@H](CCN1)C(=O)Nc1ccc(NC(=O)C2CC2)nc1

$$$$

  CDD

  0  0  0  0  0  0            999 V2000
M  END
> <Molecule Name>
CVD-0008924

> <SMILES>
O=C(CN1C(=O)CSc2ncccc12)NCc1ccc2OCOc2c1

$$$$

  CDD

  0  0  0  0  0  0            999 V2000
M  END
> <Molecule Name>
CVD-0008923

> <SMILES>
O=C(Nc1ccc(cc1)C(=O)NC[C@@H]1CCCO1)N1CCSc2ncccc12

$$$$

  CDD

  0  0  0  0  0  0            999 V2000
M  END
> <Molecule Name>
CVD-0008922

> <SMILES>
Nc1ccc(NC(=O)[C@@H]2CCCN2c2ncnc3sccc23)cn1

$$$$

  CDD

  0  0  0  0  0  0            999 V2000
M  END
> <Molecule Name>
CVD-0008921

> <SMILES>
Fc1ccc(NC(=O)Cn2c3cccnc3c(=O)n(Cc3ccccn3)c2=O)cc1Cl

$$$$

  CDD

  0  0  0  0  0  0            999 V2000
M  END
> <Molecule Name>
CVD-0008920

> <SMILES>
Fc1cccc(NC(=O)Cn2c3cccnc3c(=O)n(Cc3ccncc3)c2=O)c1

$$$$

  CDD

  0  0  0  0  0  0            999 V2000
M  END
> <Molecule Name>
CVD-0008919

> <SMILES>
Fc1ccccc1NC(=O)Cn1c2cccnc2c(=O)n(Cc2ccncc2)c1=O

$$$$

  CDD

  0  0  0  0  0  0            999 V2000
M  END
> <Molecule Name>
CVD-0008918

> <SMILES>
COc1cc(Cn2c3cccnc3c(=O)n(Cc3ccc(Cl)cc3)c2=O)cc(OC)c1

$$$$

  CDD

  0  0  0  0  0  0            999 V2000
M  END
> <Molecule Name>
CVD-0008917

> <SMILES>
CC(C)n1c2ccc(cc2n(CC(=O)Nc2cccnc2)c1=O)S(=O)(=O)N1CCCC1

$$$$

  CDD

  0  0  0  0  0  0            999 V2000
M  END
> <Molecule Name>
CVD-0008916

> <SMILES>
COc1ccc(cc1)-n1c2ncccc2n(CC(=O)NCc2ccc(F)cc2Cl)c1=O

$$$$

  CDD

  0  0  0  0  0  0            999 V2000
M  END
> <Molecule Name>
CVD-0008915

> <SMILES>
CCn1c2ncccc2n(CC(=O)NCc2ccccc2OC)c(=O)c1=O

$$$$

  CDD

  0  0  0  0  0  0            999 V2000
M  END
> <Molecule Name>
CVD-0008914

> <SMILES>
Cc1ccc(Cl)cc1NC(=O)Cn1c2cccnc2c(=O)n(Cc2ccncc2)c1=O

$$$$

  CDD

  0  0  0  0  0  0            999 V2000
M  END
> <Molecule Name>
CVD-0008913

> <SMILES>
CCc1nnc2n1c1ncccc1n(CC(=O)NCc1cccs1)c2=O

$$$$

  CDD

  0  0  0  0  0  0            999 V2000
M  END
> <Molecule Name>
CVD-0008912

> <SMILES>
CC(C)NC(=O)Cn1c2cccnc2c(=O)n(Cc2ccc3OCOc3c2)c1=O

$$$$

  CDD

  0  0  0  0  0  0            999 V2000
M  END
> <Molecule Name>
CVD-0008911

> <SMILES>
Cn1c2ncccc2n(CC(=O)NCc2ccc3OCOc3c2)c(=O)c1=O

$$$$

  CDD

  0  0  0  0  0  0            999 V2000
M  END
> <Molecule Name>
CVD-0008910

> <SMILES>
COc1ccccc1CNC(=O)Cn1c2cccnc2n2nc(C)cc2c1=O

$$$$

  CDD

  0  0  0  0  0  0            999 V2000
M  END
> <Molecule Name>
CVD-0008909

> <SMILES>
COc1ccc(cc1)-n1c2ncccc2n(CC(=O)NCc2ccc(F)cc2)c1=O

$$$$

  CDD

  0  0  0  0  0  0            999 V2000
M  END
> <Molecule Name>
CVD-0008908

> <SMILES>
O=C(Nc1ccc(cc1)C(=O)NCCCN1CCOCC1)N1CCSc2ncccc12

$$$$

  CDD

  0  0  0  0  0  0            999 V2000
M  END
> <Molecule Name>
CVD-0008907

> <SMILES>
NC(=O)Cn1c2cccnc2c(=O)n(Cc2ccccn2)c1=O

$$$$

  CDD

  0  0  0  0  0  0            999 V2000
M  END
> <Molecule Name>
CVD-0008906

> <SMILES>
Cn1c2ccc(cc2n(C)c(=O)c1=O)S(=O)(=O)CCC(=O)Nc1cccnc1

$$$$

  CDD

  0  0  0  0  0  0            999 V2000
M  END
> <Molecule Name>
CVD-0008905

> <SMILES>
Fc1ccc(Cn2c(=O)n(CC(=O)NC[C@@H]3CCCO3)c3cccnc3c2=O)cc1

$$$$

  CDD

  0  0  0  0  0  0            999 V2000
M  END
> <Molecule Name>
CVD-0008904

> <SMILES>
COc1ccc(Cn2c(=O)n(CC(=O)Nc3ccc(F)cc3)c3cccnc3c2=O)cc1

$$$$

  CDD

  0  0  0  0  0  0            999 V2000
M  END
> <Molecule Name>
CVD-0008903

> <SMILES>
Nc1ccc(NC(=O)CC[S+]([O-])c2ccc3OCCOc3c2)cn1

$$$$

  CDD

  0  0  0  0  0  0            999 V2000
M  END
> <Molecule Name>
CVD-0008902

> <SMILES>
Clc1ccccc1CNC(=O)Cn1c2cccnc2c(=O)n(Cc2ccncc2)c1=O

$$$$

  CDD

  0  0  0  0  0  0            999 V2000
M  END
> <Molecule Name>
CVD-0008901

> <SMILES>
COc1cccc(CNC(=O)Cn2c3cccnc3n(C)c(=O)c2=O)c1OC

$$$$

  CDD

  0  0  0  0  0  0            999 V2000
M  END
> <Molecule Name>
CVD-0008900

> <SMILES>
Cc1c(Cl)cccc1NC(=O)Cn1c2cccnc2c(=O)n(Cc2ccncc2)c1=O

$$$$

  CDD

  0  0  0  0  0  0            999 V2000
M  END
> <Molecule Name>
CVD-0008899

> <SMILES>
O=C(CCC(=O)N1Cc2ccccc2Oc2ncccc12)NCCCN1CCOCC1

$$$$

  CDD

  0  0  0  0  0  0            999 V2000
M  END
> <Molecule Name>
CVD-0008898

> <SMILES>
COc1ccc(Cn2c(=O)n(CC(=O)Nc3ccc(Cl)cc3)c3cccnc3c2=O)cc1

$$$$

  CDD

  0  0  0  0  0  0            999 V2000
M  END
> <Molecule Name>
CVD-0008897

> <SMILES>
COc1ccc(CCn2c(=O)n(CC(=O)NC(C)(C)C)c3cccnc3c2=O)cc1OC

$$$$

  CDD

  0  0  0  0  0  0            999 V2000
M  END
> <Molecule Name>
CVD-0008896

> <SMILES>
COc1ccc(CNC(=O)Cn2c3cccnc3n(C)c(=O)c2=O)c(OC)c1

$$$$

  CDD

  0  0  0  0  0  0            999 V2000
M  END
> <Molecule Name>
CVD-0008895

> <SMILES>
COc1cccc(CNC(=O)Cn2c3cccnc3n3nc(C)cc3c2=O)c1

$$$$

  CDD

  0  0  0  0  0  0            999 V2000
M  END
> <Molecule Name>
CVD-0008894

> <SMILES>
Fc1ccc(cc1)-n1c2ncccc2n(CC(=O)NCc2ccc(F)cc2F)c1=O

$$$$

  CDD

  0  0  0  0  0  0            999 V2000
M  END
> <Molecule Name>
CVD-0008893

> <SMILES>
COc1ccc(Cn2c(=O)n(CC(=O)Nc3ccc(Cl)c(Cl)c3)c3cccnc3c2=O)cc1

$$$$

  CDD

  0  0  0  0  0  0            999 V2000
M  END
> <Molecule Name>
CVD-0008892

> <SMILES>
NC(=O)Cn1c2cccnc2c(=O)n(Cc2ccc3OCOc3c2)c1=O

$$$$

  CDD

  0  0  0  0  0  0            999 V2000
M  END
> <Molecule Name>
CVD-0008891

> <SMILES>
COc1cc(Cn2c3cccnc3c(=O)n(Cc3ccccn3)c2=O)cc(OC)c1

$$$$

  CDD

  0  0  0  0  0  0            999 V2000
M  END
> <Molecule Name>
CVD-0008890

> <SMILES>
Fc1ccc(Cn2c(=O)n(CC(=O)Nc3ccc(F)cc3F)c3cccnc3c2=O)cc1

$$$$

  CDD

  0  0  0  0  0  0            999 V2000
M  END
> <Molecule Name>
CVD-0008889

> <SMILES>
COc1cc(Cn2c3cccnc3c(=O)n(Cc3cccnc3)c2=O)cc(OC)c1

$$$$

  CDD

  0  0  0  0  0  0            999 V2000
M  END
> <Molecule Name>
CVD-0008888

> <SMILES>
COc1ccc(Cn2c(=O)n(CC(=O)Nc3ccc(F)cc3F)c3cccnc3c2=O)cc1

$$$$

  CDD

  0  0  0  0  0  0            999 V2000
M  END
> <Molecule Name>
CVD-0008887

> <SMILES>
Clc1ccc(cc1Cl)S(=O)(=O)N1CCC[C@@H]1C(=O)Nc1cccnc1

$$$$

  CDD

  0  0  0  0  0  0            999 V2000
M  END
> <Molecule Name>
CVD-0008886

> <SMILES>
CC(C)(C)NC(=O)Cn1c2cccnc2c(=O)n(Cc2ccc3OCOc3c2)c1=O

$$$$

  CDD

  0  0  0  0  0  0            999 V2000
M  END
> <Molecule Name>
CVD-0008885

> <SMILES>
COc1ccc(cc1)-n1c2ncccc2n(CC(=O)NCc2ccccc2Cl)c1=O

$$$$

  CDD

  0  0  0  0  0  0            999 V2000
M  END
> <Molecule Name>
CVD-0008884

> <SMILES>
Fc1ccc(CNC(=O)Cn2c3cccnc3n3cnnc3c2=O)c(Cl)c1

$$$$

  CDD

  0  0  0  0  0  0            999 V2000
M  END
> <Molecule Name>
CVD-0008883

> <SMILES>
Cn1c2ncc(NC(=O)CNCC3CC3)cc2c(=O)n(C)c1=O

$$$$

  CDD

  0  0  0  0  0  0            999 V2000
M  END
> <Molecule Name>
CVD-0008882

> <SMILES>
COc1ccc(cc1)-n1c2ncccc2n(CC(=O)NCc2ccc(Cl)cc2)c1=O

$$$$

  CDD

  0  0  0  0  0  0            999 V2000
M  END
> <Molecule Name>
CVD-0008881

> <SMILES>
COc1ccc(cc1)-n1c2ncccc2n(CC(=O)NCc2cccc(F)c2)c1=O

$$$$

  CDD

  0  0  0  0  0  0            999 V2000
M  END
> <Molecule Name>
CVD-0008880

> <SMILES>
Cc1nnc2n1c1ncccc1n(CC(=O)NCc1ccc(F)cc1Cl)c2=O

$$$$

  CDD

  0  0  0  0  0  0            999 V2000
M  END
> <Molecule Name>
CVD-0008879

> <SMILES>
COc1ccc(cc1)-n1c2ncccc2n(CC(=O)NCc2cccc(Cl)c2)c1=O

$$$$

  CDD

  0  0  0  0  0  0            999 V2000
M  END
> <Molecule Name>
CVD-0008878

> <SMILES>
Cc1nnc2n1c1ncccc1n(CC(=O)NCc1ccc(F)c(Cl)c1)c2=O

$$$$

  CDD

  0  0  0  0  0  0            999 V2000
M  END
> <Molecule Name>
CVD-0008877

> <SMILES>
Cc1nnc2n1c1ncccc1n(CC(=O)NCc1ccc(F)cc1F)c2=O

$$$$

  CDD

  0  0  0  0  0  0            999 V2000
M  END
> <Molecule Name>
CVD-0008876

> <SMILES>
COc1ccc(cc1)-n1c2ncccc2n(CC(=O)NCc2ccccc2F)c1=O

$$$$

  CDD

  0  0  0  0  0  0            999 V2000
M  END
> <Molecule Name>
CVD-0008875

> <SMILES>
COc1ccc(cc1)-n1c2ncccc2n(CC(=O)NCc2ccc(F)cc2F)c1=O

$$$$

  CDD

  0  0  0  0  0  0            999 V2000
M  END
> <Molecule Name>
CVD-0008874

> <SMILES>
Fc1ccc(CNC(=O)Cn2c3cccnc3c(=O)n(Cc3ccncc3)c2=O)cc1

$$$$

  CDD

  0  0  0  0  0  0            999 V2000
M  END
> <Molecule Name>
CVD-0008873

> <SMILES>
COc1ncccc1NC(=O)C(=O)NCc1ccco1

$$$$

  CDD

  0  0  0  0  0  0            999 V2000
M  END
> <Molecule Name>
CVD-0008872

> <SMILES>
Nc1ccc(NC(=O)CCN2C(=O)CCC2=O)cn1

$$$$

  CDD

  0  0  0  0  0  0            999 V2000
M  END
> <Molecule Name>
CVD-0008871

> <SMILES>
CC[C@H](N)C(=O)Nc1cnc(OC)c(c1)C(N)=O

$$$$

  CDD

  0  0  0  0  0  0            999 V2000
M  END
> <Molecule Name>
CVD-0008870

> <SMILES>
Brc1cnc2nc(CCC(=O)Nc3cccnc3)[nH]c2c1

$$$$

  CDD

  0  0  0  0  0  0            999 V2000
M  END
> <Molecule Name>
CVD-0008869

> <SMILES>
CS(=O)(=O)c1ccc(NC(=O)[C@@H]2CCCN2)cn1

$$$$

  CDD

  0  0  0  0  0  0            999 V2000
M  END
> <Molecule Name>
CVD-0008868

> <SMILES>
Cc1noc2ncc(NC(=O)[C@@H]3CCCN3)cc12

$$$$

  CDD

  0  0  0  0  0  0            999 V2000
M  END
> <Molecule Name>
CVD-0008867

> <SMILES>
Cc1nnc2n1c1ncccc1n(CC(=O)NC1CC1)c2=O

$$$$

  CDD

  0  0  0  0  0  0            999 V2000
M  END
> <Molecule Name>
CVD-0008866

> <SMILES>
CC(C)(C)[C@@H](N)C(=O)NCC(=O)Nc1cccnc1

$$$$

  CDD

  0  0  0  0  0  0            999 V2000
M  END
> <Molecule Name>
CVD-0008865

> <SMILES>
CN[C@@H](C(=O)NCC(=O)Nc1cccnc1)c1cnn(C)c1

$$$$

  CDD

  0  0  0  0  0  0            999 V2000
M  END
> <Molecule Name>
CVD-0008864

> <SMILES>
CCN1CCC[C@H]1CNC(=O)Cn1c2cccnc2n(C)c(=O)c1=O

$$$$

  CDD

  0  0  0  0  0  0            999 V2000
M  END
> <Molecule Name>
CVD-0008863

> <SMILES>
CS(=O)(=O)c1ccc(NC(=O)C[C@@H]2CCCN2)cn1

$$$$

  CDD

  0  0  0  0  0  0            999 V2000
M  END
> <Molecule Name>
CVD-0008862

> <SMILES>
Cc1noc2ncc(NC(=O)[C@H](N)C3CCOCC3)cc12

$$$$

  CDD

  0  0  0  0  0  0            999 V2000
M  END
> <Molecule Name>
CVD-0008861

> <SMILES>
CC(C)c1nnc2ccc(NC(=O)NCCC(O)=O)cn12

$$$$

  CDD

  0  0  0  0  0  0            999 V2000
M  END
> <Molecule Name>
CVD-0008860

> <SMILES>
O=C(CCC(=O)Nc1cccnc1)NCc1ccco1

$$$$

  CDD

  0  0  0  0  0  0            999 V2000
M  END
> <Molecule Name>
CVD-0008859

> <SMILES>
CC(C)[C@@H](N)C(=O)Nc1ccc(nc1)N1CCOCC1

$$$$

  CDD

  0  0  0  0  0  0            999 V2000
M  END
> <Molecule Name>
CVD-0008858

> <SMILES>
CN(C)CC(=O)Nc1ccc(OC2CCNCC2)nc1

$$$$

  CDD

  0  0  0  0  0  0            999 V2000
M  END
> <Molecule Name>
CVD-0008857

> <SMILES>
NC[C@H]1CC[C@H](O1)C(=O)Nc1ccc(nc1)N1CCNC(=O)C1

$$$$

  CDD

  0  0  0  0  0  0            999 V2000
M  END
> <Molecule Name>
CVD-0008856

> <SMILES>
COc1ncc(NC(=O)[C@@H]2CC[C@H](CN)O2)cc1C(N)=O

$$$$

  CDD

  0  0  0  0  0  0            999 V2000
M  END
> <Molecule Name>
CVD-0008855

> <SMILES>
OCCN1CCN(C[C@@H](CC(=O)Nc2ccc(Cl)nc2)C(O)=O)CC1

$$$$

  CDD

  0  0  0  0  0  0            999 V2000
M  END
> <Molecule Name>
CVD-0008854

> <SMILES>
O=C(CC(=O)Nc1cccnc1)Nc1cccnc1

$$$$

  CDD

  0  0  0  0  0  0            999 V2000
M  END
> <Molecule Name>
CVD-0008853

> <SMILES>
COc1ncc(NC(=O)[C@@H](N)C2CCOCC2)cc1C(N)=O

$$$$

  CDD

  0  0  0  0  0  0            999 V2000
M  END
> <Molecule Name>
CVD-0008852

> <SMILES>
Cc1ccncc1NC(=O)C1(CCNCC1)n1cccn1

$$$$

  CDD

  0  0  0  0  0  0            999 V2000
M  END
> <Molecule Name>
CVD-0008851

> <SMILES>
CC(C)n1ncc2cc(NC(=O)CCCN3C(=O)CN(C)C3=O)cnc12

$$$$

  CDD

  0  0  0  0  0  0            999 V2000
M  END
> <Molecule Name>
CVD-0008850

> <SMILES>
Cn1c2cccnc2n([C@H]2CCCN(C2)C(=O)c2cc[nH]n2)c1=O

$$$$

  CDD

  0  0  0  0  0  0            999 V2000
M  END
> <Molecule Name>
CVD-0008849

> <SMILES>
Cc1cc2n(n1)c1ncccc1n(CC(=O)Nc1ccc(F)c(F)c1)c2=O

$$$$

  CDD

  0  0  0  0  0  0            999 V2000
M  END
> <Molecule Name>
CVD-0008848

> <SMILES>
Nc1ccc(NC(=O)C2CCOCC2)cn1

$$$$

  CDD

  0  0  0  0  0  0            999 V2000
M  END
> <Molecule Name>
CVD-0008847

> <SMILES>
CCN1CCN(C1=O)c1ccc(NC(C)=O)cn1

$$$$

  CDD

  0  0  0  0  0  0            999 V2000
M  END
> <Molecule Name>
CVD-0008846

> <SMILES>
C[C@H](O)CN1CCN(CC(=O)Nc2cccnc2)CC1

$$$$

  CDD

  0  0  0  0  0  0            999 V2000
M  END
> <Molecule Name>
CVD-0008845

> <SMILES>
Fc1ccc(cc1)-n1c2ncccc2n(CC(=O)NCCCN2CCCC2=O)c1=O

$$$$

  CDD

  0  0  0  0  0  0            999 V2000
M  END
> <Molecule Name>
CVD-0008844

> <SMILES>
CC(C)Cn1c(SCC(=O)Nc2cccnc2Cl)nc2cc(C)[nH]c2c1=O

$$$$

  CDD

  0  0  0  0  0  0            999 V2000
M  END
> <Molecule Name>
CVD-0008843

> <SMILES>
Cn1c2ncc(NC(=O)C[C@@H]3CCCN3)cc2c(=O)n(C)c1=O

$$$$

  CDD

  0  0  0  0  0  0            999 V2000
M  END
> <Molecule Name>
CVD-0008842

> <SMILES>
Cc1nn(c(C)c1Cl)-c1nc(CC(=O)Nc2cccnc2)cs1

$$$$

  CDD

  0  0  0  0  0  0            999 V2000
M  END
> <Molecule Name>
CVD-0008841

> <SMILES>
Cc1ccncc1NC(=O)c1csc(CCN)n1

$$$$

  CDD

  0  0  0  0  0  0            999 V2000
M  END
> <Molecule Name>
CVD-0008840

> <SMILES>
Cn1c2ncc(NC(=O)CCN)cc2c(=O)n(C)c1=O

$$$$

  CDD

  0  0  0  0  0  0            999 V2000
M  END
> <Molecule Name>
CVD-0008839

> <SMILES>
Cc1ncccc1NC(=O)c1csc(CCN)n1

$$$$

  CDD

  0  0  0  0  0  0            999 V2000
M  END
> <Molecule Name>
CVD-0008838

> <SMILES>
Cc1c(Cl)cncc1NC(=O)N1CC[C@H](C1)C(O)=O

$$$$

  CDD

  0  0  0  0  0  0            999 V2000
M  END
> <Molecule Name>
CVD-0008837

> <SMILES>
CC(C)[C@@H](N)C(=O)Nc1ccc(nc1)N1CCNC(=O)C1

$$$$

  CDD

  0  0  0  0  0  0            999 V2000
M  END
> <Molecule Name>
CVD-0008836

> <SMILES>
COC[C@H](N)C(=O)Nc1cnc(OC)c(c1)C(N)=O

$$$$

  CDD

  0  0  0  0  0  0            999 V2000
M  END
> <Molecule Name>
CVD-0008835

> <SMILES>
Fc1ccc(cc1)-n1c2ncccc2n(CC(=O)NC[C@@H]2CCCO2)c1=O

$$$$

  CDD

  0  0  0  0  0  0            999 V2000
M  END
> <Molecule Name>
CVD-0008834

> <SMILES>
Cc1cncc(NC(=O)C2(CCNCC2)n2cccn2)c1

$$$$

  CDD

  0  0  0  0  0  0            999 V2000
M  END
> <Molecule Name>
CVD-0008833

> <SMILES>
Nc1ccc(CC(=O)Nc2ccc(nc2)N2CCOCC2)nc1

$$$$

  CDD

  0  0  0  0  0  0            999 V2000
M  END
> <Molecule Name>
CVD-0008832

> <SMILES>
O=c1[nH]c2cccnc2n2cnnc12

$$$$

  CDD

  0  0  0  0  0  0            999 V2000
M  END
> <Molecule Name>
CVD-0008831

> <SMILES>
Cn1c2ccc(NC(=O)CCC(O)=O)nc2n(C)c1=O

$$$$

  CDD

  0  0  0  0  0  0            999 V2000
M  END
> <Molecule Name>
CVD-0008830

> <SMILES>
COc1ncc(NC(=O)[C@@H]2CCN[C@@H](C)C2)cc1C(N)=O

$$$$

  CDD

  0  0  0  0  0  0            999 V2000
M  END
> <Molecule Name>
CVD-0008829

> <SMILES>
Cc1ncoc1C(=O)N1CCC[C@@H](C1)n1c2ncccc2n(C)c1=O

$$$$

  CDD

  0  0  0  0  0  0            999 V2000
M  END
> <Molecule Name>
CVD-0008828

> <SMILES>
COc1ccc2n(CC(=O)Nc3cccnc3)ccc2c1

$$$$

  CDD

  0  0  0  0  0  0            999 V2000
M  END
> <Molecule Name>
CVD-0008827

> <SMILES>
Clc1ccc2ncn(CC(=O)Nc3cccnc3Cl)c(=O)c2c1

$$$$

  CDD

  0  0  0  0  0  0            999 V2000
M  END
> <Molecule Name>
CVD-0008826

> <SMILES>
CC(=O)Nc1ccc(nc1)-n1cnc(c1)C(=O)N1CCC(CC1)C(N)=O

$$$$

  CDD

  0  0  0  0  0  0            999 V2000
M  END
> <Molecule Name>
CVD-0008825

> <SMILES>
Cc1cc2n(n1)c1ncccc1n(CC(=O)Nc1ccc(F)c(C)c1)c2=O

$$$$

  CDD

  0  0  0  0  0  0            999 V2000
M  END
> <Molecule Name>
CVD-0008824

> <SMILES>
Cn1cc(cc1C(=O)Nc1cccnc1)S(=O)(=O)N1CCOCC1

$$$$

  CDD

  0  0  0  0  0  0            999 V2000
M  END
> <Molecule Name>
CVD-0008823

> <SMILES>
COCCNC(=O)C[C@H]1Sc2ncccc2N(CC(C)C)C1=O

$$$$

  CDD

  0  0  0  0  0  0            999 V2000
M  END
> <Molecule Name>
CVD-0008822

> <SMILES>
COc1ccncc1NC(=O)c1csc(CCN)n1

$$$$

  CDD

  0  0  0  0  0  0            999 V2000
M  END
> <Molecule Name>
CVD-0008821

> <SMILES>
COc1ccc(NC(=O)CCN2C(=O)c3ccncc3C2=O)cn1

$$$$

  CDD

  0  0  0  0  0  0            999 V2000
M  END
> <Molecule Name>
CVD-0008820

> <SMILES>
COCC(=O)N[C@H](C(C)C)C(=O)Nc1ccc(N)nc1

$$$$

  CDD

  0  0  0  0  0  0            999 V2000
M  END
> <Molecule Name>
CVD-0008819

> <SMILES>
Oc1ncc(Br)cc1NC(=O)[C@@H]1CCCN1

$$$$

  CDD

  0  0  0  0  0  0            999 V2000
M  END
> <Molecule Name>
CVD-0008818

> <SMILES>
COCC1(CCNCC1)C(=O)Nc1cnc(OC)c(c1)C(N)=O

$$$$

  CDD

  0  0  0  0  0  0            999 V2000
M  END
> <Molecule Name>
CVD-0008817

> <SMILES>
Cc1noc(CCC(=O)Nc2ccc(N)nc2)n1

$$$$

  CDD

  0  0  0  0  0  0            999 V2000
M  END
> <Molecule Name>
CVD-0008816

> <SMILES>
C[C@H](N)CCC(=O)Nc1cnc2n(C)c(=O)n(C)c(=O)c2c1

$$$$

  CDD

  0  0  0  0  0  0            999 V2000
M  END
> <Molecule Name>
CVD-0008815

> <SMILES>
CC[C@H](N)C(=O)Nc1cnc2onc(C)c2c1

$$$$

  CDD

  0  0  0  0  0  0            999 V2000
M  END
> <Molecule Name>
CVD-0008814

> <SMILES>
C[C@@H]1OCCN[C@@H]1C(=O)Nc1cnc2n(C)c(=O)n(C)c(=O)c2c1

$$$$

  CDD

  0  0  0  0  0  0            999 V2000
M  END
> <Molecule Name>
CVD-0008813

> <SMILES>
CCCN1CCN(CC1)C(=O)C[C@H]1Sc2ncccc2N(C)C1=O

$$$$

  CDD

  0  0  0  0  0  0            999 V2000
M  END
> <Molecule Name>
CVD-0008812

> <SMILES>
CN1CCN(C(=O)CCC(O)=O)c2cccnc12

$$$$

  CDD

  0  0  0  0  0  0            999 V2000
M  END
> <Molecule Name>
CVD-0008811

> <SMILES>
COc1ncc(NC(=O)C2(CN)CCOCC2)cc1C(N)=O

$$$$

  CDD

  0  0  0  0  0  0            999 V2000
M  END
> <Molecule Name>
CVD-0008810

> <SMILES>
NC[C@H]1CC[C@H](O1)C(=O)Nc1cccnc1-n1cccn1

$$$$

  CDD

  0  0  0  0  0  0            999 V2000
M  END
> <Molecule Name>
CVD-0008809

> <SMILES>
COc1ncc(NC(=O)[C@H]2CSCN2)cc1C(N)=O

$$$$

  CDD

  0  0  0  0  0  0            999 V2000
M  END
> <Molecule Name>
CVD-0008808

> <SMILES>
Nc1ccc(NC(=O)Cc2csc(n2)N2CCCC2=O)cn1

$$$$

  CDD

  0  0  0  0  0  0            999 V2000
M  END
> <Molecule Name>
CVD-0008807

> <SMILES>
CCCN1C(=O)[C@@H](CC(=O)NCCN(C)C)Sc2ncccc12

$$$$

  CDD

  0  0  0  0  0  0            999 V2000
M  END
> <Molecule Name>
CVD-0008806

> <SMILES>
Cc1nn(C)c(C)c1C(=O)C(=O)Nc1cnc2n(C)c(=O)n(C)c(=O)c2c1

$$$$

  CDD

  0  0  0  0  0  0            999 V2000
M  END
> <Molecule Name>
CVD-0008805

> <SMILES>
C[C@H](N(c1ccc(Cl)cc1)S(C)(=O)=O)C(=O)Nc1cccnc1

$$$$

  CDD

  0  0  0  0  0  0            999 V2000
M  END
> <Molecule Name>
CVD-0008804

> <SMILES>
C[C@]12CCC(=O)N1[C@H](CS2)C(=O)Nc1ccc(N)nc1

$$$$

  CDD

  0  0  0  0  0  0            999 V2000
M  END
> <Molecule Name>
CVD-0008803

> <SMILES>
CC(C)[C@@H](N)C(=O)NCC(=O)Nc1cccnc1-n1cccn1

$$$$

  CDD

  0  0  0  0  0  0            999 V2000
M  END
> <Molecule Name>
CVD-0008802

> <SMILES>
O=C(CN1C(=O)CSc2ncccc12)NC[C@@H]1CCCO1

$$$$

  CDD

  0  0  0  0  0  0            999 V2000
M  END
> <Molecule Name>
CVD-0008801

> <SMILES>
COCCn1c2cccnc2n([C@H]2CCCN(C2)S(=O)(=O)c2cn(C)cn2)c1=O

$$$$

  CDD

  0  0  0  0  0  0            999 V2000
M  END
> <Molecule Name>
CVD-0008800

> <SMILES>
CCn1c2ncccc2n(CC(=O)NCc2ccc(C)o2)c(=O)c1=O

$$$$

  CDD

  0  0  0  0  0  0            999 V2000
M  END
> <Molecule Name>
CVD-0008799

> <SMILES>
OC(=O)Cn1c2cccnc2[nH]c(=O)c1=O

$$$$

  CDD

  0  0  0  0  0  0            999 V2000
M  END
> <Molecule Name>
CVD-0008798

> <SMILES>
Cc1nc2c(NC(=O)Cc3c(C)noc3C)cccn2n1

$$$$

  CDD

  0  0  0  0  0  0            999 V2000
M  END
> <Molecule Name>
CVD-0008797

> <SMILES>
COc1ccc(NC(=O)CCN2CCN(CC(=O)N(C)C)CC2)cn1

$$$$

  CDD

  0  0  0  0  0  0            999 V2000
M  END
> <Molecule Name>
CVD-0008796

> <SMILES>
CC(=O)Nc1ccc(NC(=O)Cn2c3cccnc3n(-c3ccc(F)cc3)c2=O)cc1

$$$$

  CDD

  0  0  0  0  0  0            999 V2000
M  END
> <Molecule Name>
CVD-0008795

> <SMILES>
Cc1cc(C)n(n1)-c1nc(CC(=O)Nc2cccnc2)cs1

$$$$

  CDD

  0  0  0  0  0  0            999 V2000
M  END
> <Molecule Name>
CVD-0008794

> <SMILES>
CC(C)CNC(=O)c1cn(cn1)-c1ccc(NC(C)=O)cn1

$$$$

  CDD

  0  0  0  0  0  0            999 V2000
M  END
> <Molecule Name>
CVD-0008793

> <SMILES>
Cn1cc(cn1)[C@H]1CNC[C@H]1C(=O)Nc1cccnc1

$$$$

  CDD

  0  0  0  0  0  0            999 V2000
M  END
> <Molecule Name>
CVD-0008792

> <SMILES>
O=C(CN1C(=O)CSc2ncccc12)NCCN1CCOCC1

$$$$

  CDD

  0  0  0  0  0  0            999 V2000
M  END
> <Molecule Name>
CVD-0008791

> <SMILES>
Cn1c2ncccc2n(CC(=O)NCCc2ccco2)c(=O)c1=O

$$$$

  CDD

  0  0  0  0  0  0            999 V2000
M  END
> <Molecule Name>
CVD-0008790

> <SMILES>
COc1ncc(NC(=O)C2CCNCC2)cc1C(N)=O

$$$$

  CDD

  0  0  0  0  0  0            999 V2000
M  END
> <Molecule Name>
CVD-0008789

> <SMILES>
CC[C@@H](C)NC(=O)c1cn(cn1)-c1ccc(NC(C)=O)cn1

$$$$

  CDD

  0  0  0  0  0  0            999 V2000
M  END
> <Molecule Name>
CVD-0008788

> <SMILES>
Fc1ccc(cc1)-n1c2ncccc2n(CC(=O)NCCCN2CCOCC2)c1=O

$$$$

  CDD

  0  0  0  0  0  0            999 V2000
M  END
> <Molecule Name>
CVD-0008787

> <SMILES>
C[C@H]1CC[C@@H](CCC(=O)Nc2ccc(N)nc2)O1

$$$$

  CDD

  0  0  0  0  0  0            999 V2000
M  END
> <Molecule Name>
CVD-0008786

> <SMILES>
Cc1cn(C)c(CC(=O)Nc2cccnc2)c1C(O)=O

$$$$

  CDD

  0  0  0  0  0  0            999 V2000
M  END
> <Molecule Name>
CVD-0008785

> <SMILES>
COCC1(CCNCC1)C(=O)Nc1ccc(nc1)N1CCNC(=O)C1

$$$$

  CDD

  0  0  0  0  0  0            999 V2000
M  END
> <Molecule Name>
CVD-0008784

> <SMILES>
Fc1ccc(cc1)-n1c2ncccc2n(CC(=O)NCc2ccncc2)c1=O

$$$$

  CDD

  0  0  0  0  0  0            999 V2000
M  END
> <Molecule Name>
CVD-0008783

> <SMILES>
CCN1C(=O)[C@@H](CC(=O)NCc2ccco2)Sc2ncccc12

$$$$

  CDD

  0  0  0  0  0  0            999 V2000
M  END
> <Molecule Name>
CVD-0008782

> <SMILES>
O=C(C[C@@H]1COCCN1)Nc1ccc(nc1)N1CCNC(=O)C1

$$$$

  CDD

  0  0  0  0  0  0            999 V2000
M  END
> <Molecule Name>
CVD-0008781

> <SMILES>
COc1ncc(C)cc1NC(=O)NC[C@@](C)(O)C(O)=O

$$$$

  CDD

  0  0  0  0  0  0            999 V2000
M  END
> <Molecule Name>
CVD-0008780

> <SMILES>
CC(=O)c1cc(C(=O)Nc2cncc(Br)c2O)n(C)c1

$$$$

  CDD

  0  0  0  0  0  0            999 V2000
M  END
> <Molecule Name>
CVD-0008779

> <SMILES>
Cc1cncc(NC(=O)CNC(=O)CN)c1

$$$$

  CDD

  0  0  0  0  0  0            999 V2000
M  END
> <Molecule Name>
CVD-0008778

> <SMILES>
CCN1C(=O)[C@@H](CC(=O)N2CCN(C)CC2)Sc2ncccc12

$$$$

  CDD

  0  0  0  0  0  0            999 V2000
M  END
> <Molecule Name>
CVD-0008777

> <SMILES>
C[C@H](N)C(=O)Nc1ccc(cn1)N1CCCC1=O

$$$$

  CDD

  0  0  0  0  0  0            999 V2000
M  END
> <Molecule Name>
CVD-0008776

> <SMILES>
Nc1ccc(NC(=O)CN2C(=O)[C@H]3[C@@H]4CC[C@H](O4)[C@H]3C2=O)cn1

$$$$

  CDD

  0  0  0  0  0  0            999 V2000
M  END
> <Molecule Name>
CVD-0008775

> <SMILES>
Cc1ccc(CNC(=O)Cn2c3cccnc3n(C)c(=O)c2=O)o1

$$$$

  CDD

  0  0  0  0  0  0            999 V2000
M  END
> <Molecule Name>
CVD-0008774

> <SMILES>
CCC(=O)Nc1ccc(nc1)-n1cnc(c1)C(=O)NC[C@@H]1CCCO1

$$$$

  CDD

  0  0  0  0  0  0            999 V2000
M  END
> <Molecule Name>
CVD-0008773

> <SMILES>
Fc1ccc(cc1)-n1c2ncccc2n(CC(=O)Nc2ccc3OCCOc3c2)c1=O

$$$$

  CDD

  0  0  0  0  0  0            999 V2000
M  END
> <Molecule Name>
CVD-0008772

> <SMILES>
Oc1ncc(Br)cc1NC(=O)c1cn(nn1)C1CCNCC1

$$$$

  CDD

  0  0  0  0  0  0            999 V2000
M  END
> <Molecule Name>
CVD-0008771

> <SMILES>
CC(C)c1nnc2ccc(NC(=O)[C@@H](C)C(O)=O)cn12

$$$$

  CDD

  0  0  0  0  0  0            999 V2000
M  END
> <Molecule Name>
CVD-0008770

> <SMILES>
COCCn1c2cccnc2n([C@H]2CCCN(C2)C(=O)NC(C)(C)C)c1=O

$$$$

  CDD

  0  0  0  0  0  0            999 V2000
M  END
> <Molecule Name>
CVD-0008769

> <SMILES>
Clc1ncccc1NC(=O)COC(=O)c1ccco1

$$$$

  CDD

  0  0  0  0  0  0            999 V2000
M  END
> <Molecule Name>
CVD-0008768

> <SMILES>
COc1cc2ncn(CCC(=O)Nc3cccnc3)c(=O)c2cc1OC

$$$$

  CDD

  0  0  0  0  0  0            999 V2000
M  END
> <Molecule Name>
CVD-0008767

> <SMILES>
CCn1cc(C)c(C(O)=O)c1CC(=O)Nc1cccnc1

$$$$

  CDD

  0  0  0  0  0  0            999 V2000
M  END
> <Molecule Name>
CVD-0008766

> <SMILES>
O=c1[nH]c2cccnc2c(=O)n1Cc1ccncc1

$$$$

  CDD

  0  0  0  0  0  0            999 V2000
M  END
> <Molecule Name>
CVD-0008765

> <SMILES>
Cc1cc2n(n1)c1ncccc1n(CC(=O)Nc1cc(F)cc(F)c1)c2=O

$$$$

  CDD

  0  0  0  0  0  0            999 V2000
M  END
> <Molecule Name>
CVD-0008764

> <SMILES>
Cc1ccc(NC(=O)c2csc(CCN)n2)c(C)n1

$$$$

  CDD

  0  0  0  0  0  0            999 V2000
M  END
> <Molecule Name>
CVD-0008763

> <SMILES>
CC(C)C(=O)Nc1ccc(nc1)-n1cnc(c1)C(=O)NC[C@@H]1CCCO1

$$$$

  CDD

  0  0  0  0  0  0            999 V2000
M  END
> <Molecule Name>
CVD-0008762

> <SMILES>
CC[C@H](C)NC(=O)Cn1c2cccnc2n2c(C)nnc2c1=O

$$$$

  CDD

  0  0  0  0  0  0            999 V2000
M  END
> <Molecule Name>
CVD-0008761

> <SMILES>
NC[C@H]1CC[C@H](O1)C(=O)Nc1cc(Br)cnc1O

$$$$

  CDD

  0  0  0  0  0  0            999 V2000
M  END
> <Molecule Name>
CVD-0008760

> <SMILES>
CC(C)(C)n1ncc2c1ncn(CCC(=O)Nc1cccnc1)c2=O

$$$$

  CDD

  0  0  0  0  0  0            999 V2000
M  END
> <Molecule Name>
CVD-0008759

> <SMILES>
CS(=O)(=O)c1ccc(NC(=O)[C@@H]2CC[C@H](CN)O2)cn1

$$$$

  CDD

  0  0  0  0  0  0            999 V2000
M  END
> <Molecule Name>
CVD-0008758

> <SMILES>
Cc1ccc(CNC(=O)Cn2c3cccnc3n(-c3ccc(F)cc3)c2=O)o1

$$$$

  CDD

  0  0  0  0  0  0            999 V2000
M  END
> <Molecule Name>
CVD-0008757

> <SMILES>
CC(=O)N1CCC[C@H]1C(=O)Nc1ccc(N)nc1

$$$$

  CDD

  0  0  0  0  0  0            999 V2000
M  END
> <Molecule Name>
CVD-0008756

> <SMILES>
CC(C)(C)[C@@H](N)C(=O)Nc1ccc(nc1)N1CCOCC1

$$$$

  CDD

  0  0  0  0  0  0            999 V2000
M  END
> <Molecule Name>
CVD-0008755

> <SMILES>
Cc1ccc(NC(=O)CNC(=O)CN)c(C)n1

$$$$

  CDD

  0  0  0  0  0  0            999 V2000
M  END
> <Molecule Name>
CVD-0008754

> <SMILES>
COCCCNC(=O)C[C@H]1Sc2ncccc2N(C)C1=O

$$$$

  CDD

  0  0  0  0  0  0            999 V2000
M  END
> <Molecule Name>
CVD-0008753

> <SMILES>
OC(=O)[C@@H]1[C@H]2CC[C@@H](O2)[C@@H]1C(=O)Nc1cccnc1

$$$$

  CDD

  0  0  0  0  0  0            999 V2000
M  END
> <Molecule Name>
CVD-0008752

> <SMILES>
Cc1nn(c(C)c1Cl)-c1ccc(NC(=O)[C@@H]2CCC(=O)N2)cn1

$$$$

  CDD

  0  0  0  0  0  0            999 V2000
M  END
> <Molecule Name>
CVD-0008751

> <SMILES>
COCCNC(=O)Cn1c2cccnc2n(-c2ccc(F)cc2)c1=O

$$$$

  CDD

  0  0  0  0  0  0            999 V2000
M  END
> <Molecule Name>
CVD-0008750

> <SMILES>
CN1C[C@@H](CC1=O)C(=O)Nc1ccc(N)nc1

$$$$

  CDD

  0  0  0  0  0  0            999 V2000
M  END
> <Molecule Name>
CVD-0008749

> <SMILES>
CC[C@H](C)n1c(SCC(=O)Nc2cccnc2Cl)nc2cc(C)[nH]c2c1=O

$$$$

  CDD

  0  0  0  0  0  0            999 V2000
M  END
> <Molecule Name>
CVD-0008748

> <SMILES>
COc1ncc(NC(=O)[C@H]2CCNC2)cc1C(N)=O

$$$$

  CDD

  0  0  0  0  0  0            999 V2000
M  END
> <Molecule Name>
CVD-0008747

> <SMILES>
COCCNC(=O)Cn1c2cccnc2n2c(C)nnc2c1=O

$$$$

  CDD

  0  0  0  0  0  0            999 V2000
M  END
> <Molecule Name>
CVD-0008746

> <SMILES>
Cn1cnc(c1)S(=O)(=O)N1CCC[C@@H](C1)n1c2ncccc2n(C)c1=O

$$$$

  CDD

  0  0  0  0  0  0            999 V2000
M  END
> <Molecule Name>
CVD-0008745

> <SMILES>
CN1C(=O)[C@@H](CC(=O)NCc2ccco2)Sc2ncccc12

$$$$

  CDD

  0  0  0  0  0  0            999 V2000
M  END
> <Molecule Name>
CVD-0008744

> <SMILES>
Oc1ncc(Br)cc1NC(=O)CN1CCNCC1=O

$$$$

  CDD

  0  0  0  0  0  0            999 V2000
M  END
> <Molecule Name>
CVD-0008743

> <SMILES>
CC(C)(C)C(=O)NCCC(=O)Nc1ccc(N)nc1

$$$$

  CDD

  0  0  0  0  0  0            999 V2000
M  END
> <Molecule Name>
CVD-0008742

> <SMILES>
NC1(CC1)C(=O)Nc1ccc(nc1)N1CCOCC1

$$$$

  CDD

  0  0  0  0  0  0            999 V2000
M  END
> <Molecule Name>
CVD-0008741

> <SMILES>
CC(C)(CN)C(=O)Nc1ccc(nc1)S(C)(=O)=O

$$$$

  CDD

  0  0  0  0  0  0            999 V2000
M  END
> <Molecule Name>
CVD-0008740

> <SMILES>
CC(C)NC(=O)c1cn(cn1)-c1ccc(NC(C)=O)cn1

$$$$

  CDD

  0  0  0  0  0  0            999 V2000
M  END
> <Molecule Name>
CVD-0008739

> <SMILES>
OC(=O)CCC(=O)N[C@H]1CCCN(C1=O)c1cccnc1

$$$$

  CDD

  0  0  0  0  0  0            999 V2000
M  END
> <Molecule Name>
CVD-0008738

> <SMILES>
CCN1C(=O)[C@@H](CC(=O)N(C)Cc2ccco2)Sc2ncccc12

$$$$

  CDD

  0  0  0  0  0  0            999 V2000
M  END
> <Molecule Name>
CVD-0008737

> <SMILES>
O=C(CCCN1C(=O)CSc2ncccc12)NCCCN1CCOCC1

$$$$

  CDD

  0  0  0  0  0  0            999 V2000
M  END
> <Molecule Name>
CVD-0008736

> <SMILES>
COc1ccc2ncc(NC(=O)NCCCO)c(O)c2c1

$$$$

  CDD

  0  0  0  0  0  0            999 V2000
M  END
> <Molecule Name>
CVD-0008735

> <SMILES>
Cc1noc(C)c1S(=O)(=O)N1CCC[C@@H](C1)n1c2ncccc2n(C)c1=O

$$$$

  CDD

  0  0  0  0  0  0            999 V2000
M  END
> <Molecule Name>
CVD-0008734

> <SMILES>
Cn1c2ncccc2n(CC(=O)N2CCC3(CC2)OCCO3)c(=O)c1=O

$$$$

  CDD

  0  0  0  0  0  0            999 V2000
M  END
> <Molecule Name>
CVD-0008733

> <SMILES>
Cn1c2ncn(CC(=O)Nc3cccnc3)c2c(=O)n(C)c1=O

$$$$

  CDD

  0  0  0  0  0  0            999 V2000
M  END
> <Molecule Name>
CVD-0008732

> <SMILES>
C[C@H]1C[C@@H](CCN1)C(=O)Nc1cccnc1-n1cncn1

$$$$

  CDD

  0  0  0  0  0  0            999 V2000
M  END
> <Molecule Name>
CVD-0008731

> <SMILES>
N[C@H](C1CCOCC1)C(=O)Nc1ccc(nc1)N1CCOCC1

$$$$

  CDD

  0  0  0  0  0  0            999 V2000
M  END
> <Molecule Name>
CVD-0008730

> <SMILES>
CN[C@@H](C(=O)NCCC(=O)Nc1cccnc1)c1cnn(C)c1

$$$$

  CDD

  0  0  0  0  0  0            999 V2000
M  END
> <Molecule Name>
CVD-0008729

> <SMILES>
Cc1cncc(NC(=O)C[C@@]2(CCNC2)C(=O)Nc2cncc(C)c2)c1

$$$$

  CDD

  0  0  0  0  0  0            999 V2000
M  END
> <Molecule Name>
CVD-0008728

> <SMILES>
COc1ncccc1NC(=O)C[C@H](CN1CCN(CC(C)=C)CC1)C(O)=O

$$$$

  CDD

  0  0  0  0  0  0            999 V2000
M  END
> <Molecule Name>
CVD-0008727

> <SMILES>
CCCN1C(=O)[C@@H](CC(=O)NCc2ccco2)Sc2ncccc12

$$$$

  CDD

  0  0  0  0  0  0            999 V2000
M  END
> <Molecule Name>
CVD-0008726

> <SMILES>
CCN1C(=O)[C@@H](CC(=O)NCc2ccc(C)o2)Sc2ncccc12

$$$$

  CDD

  0  0  0  0  0  0            999 V2000
M  END
> <Molecule Name>
CVD-0008725

> <SMILES>
CN1CCN(CC1)[C@@H](CC(=O)Nc1cccnc1)C(O)=O

$$$$

  CDD

  0  0  0  0  0  0            999 V2000
M  END
> <Molecule Name>
CVD-0008724

> <SMILES>
COCCn1c2cccnc2n([C@H]2CCCN(C2)C(=O)c2cc[nH]n2)c1=O

$$$$

  CDD

  0  0  0  0  0  0            999 V2000
M  END
> <Molecule Name>
CVD-0008723

> <SMILES>
O=C(CCCN1C(=O)CSc2ncccc12)NC[C@@H]1CCCO1

$$$$

  CDD

  0  0  0  0  0  0            999 V2000
M  END
> <Molecule Name>
CVD-0008722

> <SMILES>
CC(C)n1c(SCC(=O)Nc2cccnc2Cl)nc2cc(C)[nH]c2c1=O

$$$$

  CDD

  0  0  0  0  0  0            999 V2000
M  END
> <Molecule Name>
CVD-0008721

> <SMILES>
NC[C@H]1CC[C@H](O1)C(=O)NCCC(=O)Nc1cccnc1

$$$$

  CDD

  0  0  0  0  0  0            999 V2000
M  END
> <Molecule Name>
CVD-0008720

> <SMILES>
O=C(CNC(=O)c1ccn(n1)[C@H]1CCCNC1)Nc1cccnc1

$$$$

  CDD

  0  0  0  0  0  0            999 V2000
M  END
> <Molecule Name>
CVD-0008719

> <SMILES>
OC(=O)[C@@H]1[C@@H]2O[C@H](C=C2)[C@@H]1C(=O)Nc1cccnc1

$$$$

  CDD

  0  0  0  0  0  0            999 V2000
M  END
> <Molecule Name>
CVD-0008718

> <SMILES>
CC(C)CNC(=O)Cn1c2cccnc2n2c(C)nnc2c1=O

$$$$

  CDD

  0  0  0  0  0  0            999 V2000
M  END
> <Molecule Name>
CVD-0008717

> <SMILES>
Nc1ccc(NC(=O)[C@@H]2CNC(=O)C2)cn1

$$$$

  CDD

  0  0  0  0  0  0            999 V2000
M  END
> <Molecule Name>
CVD-0008716

> <SMILES>
Cn1c2ncc(NC(=O)[C@H](N)C3CCOCC3)cc2c(=O)n(C)c1=O

$$$$

  CDD

  0  0  0  0  0  0            999 V2000
M  END
> <Molecule Name>
CVD-0008715

> <SMILES>
CN1CCC(=CC1)c1noc(CCC(=O)Nc2cccnc2Cl)n1

$$$$

  CDD

  0  0  0  0  0  0            999 V2000
M  END
> <Molecule Name>
CVD-0008714

> <SMILES>
COc1ncc(NC(=O)C2(N)CCOCC2)cc1C(N)=O

$$$$

  CDD

  0  0  0  0  0  0            999 V2000
M  END
> <Molecule Name>
CVD-0008713

> <SMILES>
CCn1c2ncccc2n(CC(=O)N2CCC3(CC2)OCCO3)c(=O)c1=O

$$$$

  CDD

  0  0  0  0  0  0            999 V2000
M  END
> <Molecule Name>
CVD-0008712

> <SMILES>
CNC[C@@H](C)C(=O)Nc1cccnc1-n1cccn1

$$$$

  CDD

  0  0  0  0  0  0            999 V2000
M  END
> <Molecule Name>
CVD-0008711

> <SMILES>
C[C@@H]1OCCN[C@@H]1C(=O)NCC(=O)Nc1cccnc1

$$$$

  CDD

  0  0  0  0  0  0            999 V2000
M  END
> <Molecule Name>
CVD-0008710

> <SMILES>
O=C(Nc1ccc(nc1)N1CCNC(=O)C1)[C@@H]1COCCN1

$$$$

  CDD

  0  0  0  0  0  0            999 V2000
M  END
> <Molecule Name>
CVD-0008709

> <SMILES>
CC[C@@H](C)NC(=O)Cn1c2cccnc2n(CC)c(=O)c1=O

$$$$

  CDD

  0  0  0  0  0  0            999 V2000
M  END
> <Molecule Name>
CVD-0008708

> <SMILES>
Cc1ncccc1NC(=O)[C@@H]1CNC[C@@H]1c1cnn(C)c1

$$$$

  CDD

  0  0  0  0  0  0            999 V2000
M  END
> <Molecule Name>
CVD-0008707

> <SMILES>
CNC[C@@H](C)C(=O)Nc1cccnc1-n1cncn1

$$$$

  CDD

  0  0  0  0  0  0            999 V2000
M  END
> <Molecule Name>
CVD-0008706

> <SMILES>
CC(C)(C)C(=O)Nc1nc(CC(=O)Nc2ccc(N)nc2)cs1

$$$$

  CDD

  0  0  0  0  0  0            999 V2000
M  END
> <Molecule Name>
CVD-0008705

> <SMILES>
CN[C@@H](C(=O)Nc1ccc(nc1)N1CCOCC1)c1cnn(C)c1

$$$$

  CDD

  0  0  0  0  0  0            999 V2000
M  END
> <Molecule Name>
CVD-0008704

> <SMILES>
O=C(CCN1C(=S)S\C(=C\c2ccco2)C1=O)Nc1cccnc1

$$$$

  CDD

  0  0  0  0  0  0            999 V2000
M  END
> <Molecule Name>
CVD-0008703

> <SMILES>
COCC1(CCNCC1)C(=O)Nc1cc(Br)cnc1O

$$$$

  CDD

  0  0  0  0  0  0            999 V2000
M  END
> <Molecule Name>
CVD-0008702

> <SMILES>
O=C(CN1C(=O)CSc2ncccc12)NCCCN1CCOCC1

$$$$

  CDD

  0  0  0  0  0  0            999 V2000
M  END
> <Molecule Name>
CVD-0008701

> <SMILES>
N[C@H](C1CCOCC1)C(=O)Nc1ccc(nc1)N1CCNC(=O)C1

$$$$

  CDD

  0  0  0  0  0  0            999 V2000
M  END
> <Molecule Name>
CVD-0008700

> <SMILES>
Cn1c(SCC(=O)Nc2cccnc2Cl)nnc1-c1ccc(Br)o1

$$$$

  CDD

  0  0  0  0  0  0            999 V2000
M  END
> <Molecule Name>
CVD-0008699

> <SMILES>
O[C@@H](CCNC(=O)C(=O)Nc1cccnc1)c1ccoc1

$$$$

  CDD

  0  0  0  0  0  0            999 V2000
M  END
> <Molecule Name>
CVD-0008698

> <SMILES>
COc1ccc(OC)c(CNC(=O)Cn2c3cccnc3n(C)c(=O)c2=O)c1

$$$$

  CDD

  0  0  0  0  0  0            999 V2000
M  END
> <Molecule Name>
CVD-0008697

> <SMILES>
CC(C)[C@H](NC(=O)N[C@@H]1CCS(=O)(=O)C1)C(=O)Nc1cccnc1

$$$$

  CDD

  0  0  0  0  0  0            999 V2000
M  END
> <Molecule Name>
CVD-0008696

> <SMILES>
Fc1ccc(cc1)-n1c2ncccc2n(CC(=O)NCc2ccco2)c1=O

$$$$

  CDD

  0  0  0  0  0  0            999 V2000
M  END
> <Molecule Name>
CVD-0008695

> <SMILES>
CC(C)c1cc(=O)n2[C@H](CC(=O)Nc3cccnc3)CSc2n1

$$$$

  CDD

  0  0  0  0  0  0            999 V2000
M  END
> <Molecule Name>
CVD-0008694

> <SMILES>
Cn1c2n(CC(=O)Nc3cccnc3)ccc2c(=O)n(C)c1=O

$$$$

  CDD

  0  0  0  0  0  0            999 V2000
M  END
> <Molecule Name>
CVD-0008693

> <SMILES>
COc1ncc(NC(=O)[C@@H]2COCCN2)cc1C(N)=O

$$$$

  CDD

  0  0  0  0  0  0            999 V2000
M  END
> <Molecule Name>
CVD-0008692

> <SMILES>
NC(=O)Cn1c2cccnc2c(=O)n(Cc2ccncc2)c1=O

$$$$

  CDD

  0  0  0  0  0  0            999 V2000
M  END
> <Molecule Name>
CVD-0008691

> <SMILES>
Cn1c2ncccc2n(CC(O)=O)c(=O)c1=O

$$$$

  CDD

  0  0  0  0  0  0            999 V2000
M  END
> <Molecule Name>
CVD-0008690

> <SMILES>
COC[C@@H](N)C(=O)Nc1cccnc1-n1cccn1

$$$$

  CDD

  0  0  0  0  0  0            999 V2000
M  END
> <Molecule Name>
CVD-0008689

> <SMILES>
CC(=O)Nc1ccc(nc1)-n1cnc(c1)C(=O)NC[C@@H]1CCCO1

$$$$

  CDD

  0  0  0  0  0  0            999 V2000
M  END
> <Molecule Name>
CVD-0008688

> <SMILES>
Cc1nnc2n1c1ncccc1n(CC(=O)NC(C)(C)C)c2=O

$$$$

  CDD

  0  0  0  0  0  0            999 V2000
M  END
> <Molecule Name>
CVD-0008687

> <SMILES>
Cc1cc(C)n2nc(CC(=O)Nc3cccnc3)nc2n1

$$$$

  CDD

  0  0  0  0  0  0            999 V2000
M  END
> <Molecule Name>
CVD-0008686

> <SMILES>
O=C(Nc1ccc(nc1)N1CCNC(=O)C1)[C@@H]1CCCN1

$$$$

  CDD

  0  0  0  0  0  0            999 V2000
M  END
> <Molecule Name>
CVD-0008685

> <SMILES>
O=C(CCc1nc2ncccc2[nH]1)Nc1cccnc1

$$$$

  CDD

  0  0  0  0  0  0            999 V2000
M  END
> <Molecule Name>
CVD-0008684

> <SMILES>
CN1CCN(C(=O)[C@@H]2CNC[C@@H]2c2cnn(C)c2)c2cccnc12

$$$$

  CDD

  0  0  0  0  0  0            999 V2000
M  END
> <Molecule Name>
CVD-0008683

> <SMILES>
CC(=O)Nc1ccc(OCC(=O)NCc2ccco2)nc1

$$$$

  CDD

  0  0  0  0  0  0            999 V2000
M  END
> <Molecule Name>
CVD-0008682

> <SMILES>
CC(C)(C)C(=O)Nc1cnccc1C1OCCO1

$$$$

  CDD

  0  0  0  0  0  0            999 V2000
M  END
> <Molecule Name>
CVD-0008681

> <SMILES>
OC(=O)[C@H](CC(=O)Nc1cccnc1)NCc1ccco1

$$$$

  CDD

  0  0  0  0  0  0            999 V2000
M  END
> <Molecule Name>
CVD-0008680

> <SMILES>
OC(=O)CCCNC(=O)N[C@H]1CCCN(C1=O)c1cccnc1

$$$$

  CDD

  0  0  0  0  0  0            999 V2000
M  END
> <Molecule Name>
CVD-0008679

> <SMILES>
CN1C(=O)[C@@H](CC(=O)NCc2ccc(C)o2)Sc2ncccc12

$$$$

  CDD

  0  0  0  0  0  0            999 V2000
M  END
> <Molecule Name>
CVD-0008678

> <SMILES>
COc1ncc(NC(=O)C2(CCNCC2)OC)cc1C(N)=O

$$$$

  CDD

  0  0  0  0  0  0            999 V2000
M  END
> <Molecule Name>
CVD-0008677

> <SMILES>
CCC(=O)N1CSC[C@H]1C(=O)Nc1ccc(N)nc1

$$$$

  CDD

  0  0  0  0  0  0            999 V2000
M  END
> <Molecule Name>
CVD-0008676

> <SMILES>
OC(=O)[C@@H](CN1CCOCC1)CC(=O)Nc1ccc(Cl)nc1

$$$$

  CDD

  0  0  0  0  0  0            999 V2000
M  END
> <Molecule Name>
CVD-0008675

> <SMILES>
Nc1ccc(NC(=O)CCN2CCCS2(=O)=O)cn1

$$$$

  CDD

  0  0  0  0  0  0            999 V2000
M  END
> <Molecule Name>
CVD-0008674

> <SMILES>
Cc1ccn(CCNC(=O)C(=O)Nc2cnccc2O)n1

$$$$

  CDD

  0  0  0  0  0  0            999 V2000
M  END
> <Molecule Name>
CVD-0008673

> <SMILES>
COc1cc(Cl)cc2[C@@H](CCOc12)C(=O)Nc1nncn1C1CC1

$$$$

  CDD

  0  0  0  0  0  0            999 V2000
M  END
> <Molecule Name>
CVD-0008672

> <SMILES>
Brc1cncc(OC(=O)c2ccccn2)c1

$$$$

  CDD

  0  0  0  0  0  0            999 V2000
M  END
> <Molecule Name>
CVD-0008671

> <SMILES>
Cc1ccc(NC(=S)NN2CCOCC2)cc1

$$$$

  CDD

  0  0  0  0  0  0            999 V2000
M  END
> <Molecule Name>
CVD-0008670

> <SMILES>
O=C(Cn1nnc2ccccc12)NCc1cccs1

$$$$

  CDD

  0  0  0  0  0  0            999 V2000
M  END
> <Molecule Name>
CVD-0008669

> <SMILES>
CCC(C)N(C)C(=O)Cn1nnc2ccccc12

$$$$

  CDD

  0  0  0  0  0  0            999 V2000
M  END
> <Molecule Name>
CVD-0008668

> <SMILES>
COc1ccccc1CCNC(=O)C(N)c1ccco1

$$$$

  CDD

  0  0  0  0  0  0            999 V2000
M  END
> <Molecule Name>
CVD-0008667

> <SMILES>
Cc1ccc(cc1C)C(=O)NCCN1CCOCC1

$$$$

  CDD

  0  0  0  0  0  0            999 V2000
M  END
> <Molecule Name>
CVD-0008666

> <SMILES>
CC(C)(C)NC(=O)C(N)c1cccc(F)c1

$$$$

  CDD

  0  0  0  0  0  0            999 V2000
M  END
> <Molecule Name>
CVD-0008665

> <SMILES>
ClCC(=O)N(Cc1ccccc1Cl)c1ccccc1

$$$$

  CDD

  0  0  0  0  0  0            999 V2000
M  END
> <Molecule Name>
CVD-0008664

> <SMILES>
Cc1ccc(CN2CCN(CC2)C(=O)CCl)o1

$$$$

  CDD

  0  0  0  0  0  0            999 V2000
M  END
> <Molecule Name>
CVD-0008663

> <SMILES>
Clc1ccc(OC(=O)c2cccs2)cc1

$$$$

  CDD

  0  0  0  0  0  0            999 V2000
M  END
> <Molecule Name>
CVD-0008662

> <SMILES>
Cc1nnc(NC(=O)[C@]2(F)CCOc3ccc(Cl)cc23)n1C1CC1F

$$$$

  CDD

  0  0  0  0  0  0            999 V2000
M  END
> <Molecule Name>
CVD-0008661

> <SMILES>
Cc1nnc(NC(=O)C2CCOc3ccc(Cl)c(F)c23)n1C1CC1F

$$$$

  CDD

  0  0  0  0  0  0            999 V2000
M  END
> <Molecule Name>
CVD-0008660

> <SMILES>
FC1CC1n1cnnc1NC(=O)C1CCOc2ccc(Cl)cc12

$$$$

  CDD

  0  0  0  0  0  0            999 V2000
M  END
> <Molecule Name>
CVD-0008659

> <SMILES>
FC1CC1n1cnnc1NC(=O)[C@]1(F)CCOc2ccc(Cl)cc12

$$$$

  CDD

  0  0  0  0  0  0            999 V2000
M  END
> <Molecule Name>
CVD-0008658

> <SMILES>
FC1CC1n1cnnc1NC(=O)C1CCOc2ccc(Cl)c(F)c12

$$$$

  CDD

  0  0  0  0  0  0            999 V2000
M  END
> <Molecule Name>
CVD-0008657

> <SMILES>
COC(=O)Cn1c(=O)[nH]c2cccnc2c1=O

$$$$

  CDD

  0  0  0  0  0  0            999 V2000
M  END
> <Molecule Name>
CVD-0008656

> <SMILES>
CC(C)c1noc(CCC(=O)Nc2ccc(N)nc2)n1

$$$$

  CDD

  0  0  0  0  0  0            999 V2000
M  END
> <Molecule Name>
CVD-0008655

> <SMILES>
CO[C@@H](C)C(=O)Nc1cnc2CC[C@H](N)Cc2c1

$$$$

  CDD

  0  0  0  0  0  0            999 V2000
M  END
> <Molecule Name>
CVD-0008654

> <SMILES>
NC[C@H]1CC[C@H](O1)C(=O)NCC(=O)Nc1cccnc1

$$$$

  CDD

  0  0  0  0  0  0            999 V2000
M  END
> <Molecule Name>
CVD-0008653

> <SMILES>
O=C(CC[C@@H]1CCCN1)Nc1cccnc1-n1cncn1

$$$$

  CDD

  0  0  0  0  0  0            999 V2000
M  END
> <Molecule Name>
CVD-0008652

> <SMILES>
Cc1ncccc1NC(=O)C[C@@]1(CCNC1)C(=O)Nc1cccnc1C

$$$$

  CDD

  0  0  0  0  0  0            999 V2000
M  END
> <Molecule Name>
CVD-0008651

> <SMILES>
NCC1(CCOCC1)C(=O)Nc1cc(Br)cnc1O

$$$$

  CDD

  0  0  0  0  0  0            999 V2000
M  END
> <Molecule Name>
CVD-0008650

> <SMILES>
Cc1cc2n(n1)c1ncccc1n(CC(=O)Nc1ccc(F)cc1)c2=O

$$$$

  CDD

  0  0  0  0  0  0            999 V2000
M  END
> <Molecule Name>
CVD-0008649

> <SMILES>
C[C@H](N(c1ccc2OCCOc2c1)S(C)(=O)=O)C(=O)Nc1cccnc1

$$$$

  CDD

  0  0  0  0  0  0            999 V2000
M  END
> <Molecule Name>
CVD-0008648

> <SMILES>
Oc1ccncc1NC(=O)Cc1cc(F)ccc1F

$$$$

  CDD

  0  0  0  0  0  0            999 V2000
M  END
> <Molecule Name>
CVD-0008647

> <SMILES>
COc1ccc(NC(=O)C[S+]([O-])CC(=O)Nc2cccnc2)cc1

$$$$

  CDD

  0  0  0  0  0  0            999 V2000
M  END
> <Molecule Name>
CVD-0008646

> <SMILES>
O[C@@H](CNC(=O)C(=O)Nc1cccnc1)c1ccoc1

$$$$

  CDD

  0  0  0  0  0  0            999 V2000
M  END
> <Molecule Name>
CVD-0008645

> <SMILES>
COc1ccc(OC)c(NC(=O)CN2C(=O)CSc3ncccc23)c1

$$$$

  CDD

  0  0  0  0  0  0            999 V2000
M  END
> <Molecule Name>
CVD-0008644

> <SMILES>
Cn1c2cccnc2n(CC(O)=O)c(=O)c1=O

$$$$

  CDD

  0  0  0  0  0  0            999 V2000
M  END
> <Molecule Name>
CVD-0008643

> <SMILES>
CCN1C[C@@H](CC1=O)C(=O)Nc1ccc(N)nc1

$$$$

  CDD

  0  0  0  0  0  0            999 V2000
M  END
> <Molecule Name>
CVD-0008642

> <SMILES>
CCn1c2ncccc2n(CC(=O)NCc2ccco2)c(=O)c1=O

$$$$

  CDD

  0  0  0  0  0  0            999 V2000
M  END
> <Molecule Name>
CVD-0008641

> <SMILES>
COCCOc1ncccc1NC(=O)Cc1c[nH]c2ccc(F)cc12

$$$$

  CDD

  0  0  0  0  0  0            999 V2000
M  END
> <Molecule Name>
CVD-0008640

> <SMILES>
N[C@H](C1CCOCC1)C(=O)NCCC(=O)Nc1cccnc1

$$$$

  CDD

  0  0  0  0  0  0            999 V2000
M  END
> <Molecule Name>
CVD-0008639

> <SMILES>
NCC1(CCOCC1)C(=O)NCCC(=O)Nc1cccnc1

$$$$

  CDD

  0  0  0  0  0  0            999 V2000
M  END
> <Molecule Name>
CVD-0008638

> <SMILES>
CC(C)CN1C(=O)[C@@H](CC(=O)N2CCOCC2)Sc2ncccc12

$$$$

  CDD

  0  0  0  0  0  0            999 V2000
M  END
> <Molecule Name>
CVD-0008637

> <SMILES>
COCc1nc2c(NC(=O)CNC(C)=O)cccn2n1

$$$$

  CDD

  0  0  0  0  0  0            999 V2000
M  END
> <Molecule Name>
CVD-0008636

> <SMILES>
CC(C)(C)NC(=O)Cn1c2cccnc2n(-c2ccc(F)cc2)c1=O

$$$$

  CDD

  0  0  0  0  0  0            999 V2000
M  END
> <Molecule Name>
CVD-0008635

> <SMILES>
Fc1ccc(NC(=O)Cn2c3cccnc3c(=O)n(Cc3ccncc3)c2=O)cc1

$$$$

  CDD

  0  0  0  0  0  0            999 V2000
M  END
> <Molecule Name>
CVD-0008634

> <SMILES>
CC(=O)Nc1nc2CCN(CC(=O)Nc3cccnc3)Cc2s1

$$$$

  CDD

  0  0  0  0  0  0            999 V2000
M  END
> <Molecule Name>
CVD-0008633

> <SMILES>
COCC1(CCNCC1)C(=O)Nc1cnc2n(C)c(=O)n(C)c(=O)c2c1

$$$$

  CDD

  0  0  0  0  0  0            999 V2000
M  END
> <Molecule Name>
CVD-0008632

> <SMILES>
[O-][S+](CC(=O)Nc1ccc(Cl)cc1)CC(=O)Nc1cccnc1

$$$$

  CDD

  0  0  0  0  0  0            999 V2000
M  END
> <Molecule Name>
CVD-0008631

> <SMILES>
COc1ccc(OC)c(CNC(=O)Cn2c3cccnc3n(-c3ccc(F)cc3)c2=O)c1

$$$$

  CDD

  0  0  0  0  0  0            999 V2000
M  END
> <Molecule Name>
CVD-0008630

> <SMILES>
Cc1cnc2SC[C@@H](CC(=O)Nc3cccnc3)n2c1=O

$$$$

  CDD

  0  0  0  0  0  0            999 V2000
M  END
> <Molecule Name>
CVD-0008629

> <SMILES>
Fc1ccc(cc1)-n1c2ncccc2n(CC(=O)NCCN2CCOCC2)c1=O

$$$$

  CDD

  0  0  0  0  0  0            999 V2000
M  END
> <Molecule Name>
CVD-0008628

> <SMILES>
COc1cc(CNC(=O)Cn2c3cccnc3n(-c3ccc(F)cc3)c2=O)cc(OC)c1

$$$$

  CDD

  0  0  0  0  0  0            999 V2000
M  END
> <Molecule Name>
CVD-0008627

> <SMILES>
O=C(Nc1cccnc1-n1cncn1)[C@@H]1CNCCO1

$$$$

  CDD

  0  0  0  0  0  0            999 V2000
M  END
> <Molecule Name>
CVD-0008626

> <SMILES>
O=C(CNC(=O)N[C@@H]1CCS(=O)(=O)C1)Nc1cccnc1

$$$$

  CDD

  0  0  0  0  0  0            999 V2000
M  END
> <Molecule Name>
CVD-0008625

> <SMILES>
COCCN1C[C@@H](CC1=O)C(=O)Nc1ccc(N)nc1

$$$$

  CDD

  0  0  0  0  0  0            999 V2000
M  END
> <Molecule Name>
CVD-0008624

> <SMILES>
Cn1c2ncc(NC(=O)C3(N)CC3)cc2c(=O)n(C)c1=O

$$$$

  CDD

  0  0  0  0  0  0            999 V2000
M  END
> <Molecule Name>
CVD-0008623

> <SMILES>
Fc1ccc(cc1)-n1c2ncccc2n(CC(=O)N2CCOCC2)c1=O

$$$$

  CDD

  0  0  0  0  0  0            999 V2000
M  END
> <Molecule Name>
CVD-0008622

> <SMILES>
Cc1noc2ncc(NC(=O)[C@@H]3CC[C@H](CN)O3)cc12

$$$$

  CDD

  0  0  0  0  0  0            999 V2000
M  END
> <Molecule Name>
CVD-0008621

> <SMILES>
CC(C)C(=O)Nc1nc(CC(=O)Nc2ccc(N)nc2)cs1

$$$$

  CDD

  0  0  0  0  0  0            999 V2000
M  END
> <Molecule Name>
CVD-0008620

> <SMILES>
COc1ncc(NC(=O)[C@H]2NCCO[C@H]2C)cc1C(N)=O

$$$$

  CDD

  0  0  0  0  0  0            999 V2000
M  END
> <Molecule Name>
CVD-0008619

> <SMILES>
Clc1ncccc1NC(=O)COC(=O)C1=COCCO1

$$$$

  CDD

  0  0  0  0  0  0            999 V2000
M  END
> <Molecule Name>
CVD-0008618

> <SMILES>
CCCN1C(=O)[C@@H](CC(O)=O)Sc2ncccc12

$$$$

  CDD

  0  0  0  0  0  0            999 V2000
M  END
> <Molecule Name>
CVD-0008617

> <SMILES>
O=C(Nc1cccnc1-n1cccn1)c1ccn(n1)[C@H]1CCCNC1

$$$$

  CDD

  0  0  0  0  0  0            999 V2000
M  END
> <Molecule Name>
CVD-0008616

> <SMILES>
Fc1ccc(cc1)N1CCN(CC1)C(=O)COCC(=O)Nc1cccnc1

$$$$

  CDD

  0  0  0  0  0  0            999 V2000
M  END
> <Molecule Name>
CVD-0008615

> <SMILES>
C[C@H](Cc1ccco1)NC(=O)Cn1c2cccnc2n(C)c(=O)c1=O

$$$$

  CDD

  0  0  0  0  0  0            999 V2000
M  END
> <Molecule Name>
CVD-0008614

> <SMILES>
[O-][S+](CC(=O)Nc1ccc(F)cc1)CC(=O)Nc1cccnc1

$$$$

  CDD

  0  0  0  0  0  0            999 V2000
M  END
> <Molecule Name>
CVD-0008613

> <SMILES>
Clc1ncccc1NC(=O)CN1C(=O)NC2(CCOCC2)C1=O

$$$$

  CDD

  0  0  0  0  0  0            999 V2000
M  END
> <Molecule Name>
CVD-0008612

> <SMILES>
O=C(Nc1ccc(cn1)N1CCCC1=O)C1CCNCC1

$$$$

  CDD

  0  0  0  0  0  0            999 V2000
M  END
> <Molecule Name>
CVD-0008611

> <SMILES>
Cc1nc2SC[C@@H](CC(=O)Nc3cccnc3)n2c(=O)c1C

$$$$

  CDD

  0  0  0  0  0  0            999 V2000
M  END
> <Molecule Name>
CVD-0008610

> <SMILES>
Clc1ccc(NC(=O)Cn2c3cccnc3c(=O)n(Cc3ccncc3)c2=O)cc1

$$$$

  CDD

  0  0  0  0  0  0            999 V2000
M  END
> <Molecule Name>
CVD-0008609

> <SMILES>
CCCNC(=O)C[C@H]1Sc2ncccc2N(CC)C1=O

$$$$

  CDD

  0  0  0  0  0  0            999 V2000
M  END
> <Molecule Name>
CVD-0008608

> <SMILES>
O=C(Cn1ccc2c(cnc3ccnn23)c1=O)Nc1cccnc1

$$$$

  CDD

  0  0  0  0  0  0            999 V2000
M  END
> <Molecule Name>
CVD-0008607

> <SMILES>
C[C@@H](N)[C@@H](C)C(=O)NCC(=O)Nc1cccnc1

$$$$

  CDD

  0  0  0  0  0  0            999 V2000
M  END
> <Molecule Name>
CVD-0008606

> <SMILES>
CCn1c(SCC(=O)Nc2cccnc2Cl)nc2cc(C)[nH]c2c1=O

$$$$

  CDD

  0  0  0  0  0  0            999 V2000
M  END
> <Molecule Name>
CVD-0008605

> <SMILES>
CC(C)[C@@H](NC(=O)c1ccco1)C(=O)Nc1ccc(N)nc1

$$$$

  CDD

  0  0  0  0  0  0            999 V2000
M  END
> <Molecule Name>
CVD-0008604

> <SMILES>
O=C(C[C@]1(CCNC1)C(=O)Nc1cccnc1)Nc1cccnc1

$$$$

  CDD

  0  0  0  0  0  0            999 V2000
M  END
> <Molecule Name>
CVD-0008603

> <SMILES>
Nc1ccc(NC(=O)CCCN2C(=O)CNC2=O)cn1

$$$$

  CDD

  0  0  0  0  0  0            999 V2000
M  END
> <Molecule Name>
CVD-0008602

> <SMILES>
CN[C@@H](C(=O)Nc1cc(Br)cnc1O)c1cnn(C)c1

$$$$

  CDD

  0  0  0  0  0  0            999 V2000
M  END
> <Molecule Name>
CVD-0008601

> <SMILES>
Cn1c2ncc(NC(=O)CN)cc2c(=O)n(C)c1=O

$$$$

  CDD

  0  0  0  0  0  0            999 V2000
M  END
> <Molecule Name>
CVD-0008600

> <SMILES>
Cc1cc2nc(SCC(=O)Nc3cccnc3Cl)[nH]c(=O)c2[nH]1

$$$$

  CDD

  0  0  0  0  0  0            999 V2000
M  END
> <Molecule Name>
CVD-0008599

> <SMILES>
O=C(C[C@@H]1COCCN1)N1CC(=O)Nc2cnccc12

$$$$

  CDD

  0  0  0  0  0  0            999 V2000
M  END
> <Molecule Name>
CVD-0008598

> <SMILES>
Fc1ccc(NC(=O)Cn2c3cccnc3c(=O)n(Cc3ccncc3)c2=O)cc1Cl

$$$$

  CDD

  0  0  0  0  0  0            999 V2000
M  END
> <Molecule Name>
CVD-0008597

> <SMILES>
CCn1c2ncccc2n(CC(=O)NCCOC)c(=O)c1=O

$$$$

  CDD

  0  0  0  0  0  0            999 V2000
M  END
> <Molecule Name>
CVD-0008596

> <SMILES>
O=C(CCNC(=O)C1(CCNCC1)n1cccn1)Nc1cccnc1

$$$$

  CDD

  0  0  0  0  0  0            999 V2000
M  END
> <Molecule Name>
CVD-0008595

> <SMILES>
CC(C)[C@@H](N)C(=O)NCC(=O)Nc1ccc(nc1)N1CCNC(=O)C1

$$$$

  CDD

  0  0  0  0  0  0            999 V2000
M  END
> <Molecule Name>
CVD-0008594

> <SMILES>
CCCNC(=O)C[C@H]1Sc2ncccc2N(C)C1=O

$$$$

  CDD

  0  0  0  0  0  0            999 V2000
M  END
> <Molecule Name>
CVD-0008593

> <SMILES>
O=c1[nH]c2cccnc2c(=O)n1Cc1ccco1

$$$$

  CDD

  0  0  0  0  0  0            999 V2000
M  END
> <Molecule Name>
CVD-0008592

> <SMILES>
CCc1nnc2n1c1ncccc1n(CC(=O)NC[C@@H]1CCCO1)c2=O

$$$$

  CDD

  0  0  0  0  0  0            999 V2000
M  END
> <Molecule Name>
CVD-0008591

> <SMILES>
CS(=O)(=O)N1CCC(CNC(=O)C(=O)Nc2cccnc2)CC1

$$$$

  CDD

  0  0  0  0  0  0            999 V2000
M  END
> <Molecule Name>
CVD-0008590

> <SMILES>
COCc1nc2c(NC(=O)[C@@H]3CCCO3)cccn2n1

$$$$

  CDD

  0  0  0  0  0  0            999 V2000
M  END
> <Molecule Name>
CVD-0008589

> <SMILES>
C[C@H]1C[C@@H](CCN1)C(=O)Nc1ccc(cn1)N1CCCC1=O

$$$$

  CDD

  0  0  0  0  0  0            999 V2000
M  END
> <Molecule Name>
CVD-0008588

> <SMILES>
Cn1ccnc1[C@H]1CNCCN1CCC(=O)Nc1cccnc1

$$$$

  CDD

  0  0  0  0  0  0            999 V2000
M  END
> <Molecule Name>
CVD-0008587

> <SMILES>
Cc1nnc2n1c1ncccc1n(CC(=O)N1CCOCC1)c2=O

$$$$

  CDD

  0  0  0  0  0  0            999 V2000
M  END
> <Molecule Name>
CVD-0008586

> <SMILES>
O=C(CN1CCN(C1=O)c1ccc2OCOc2c1)Nc1cccnc1

$$$$

  CDD

  0  0  0  0  0  0            999 V2000
M  END
> <Molecule Name>
CVD-0008585

> <SMILES>
O=C(Nc1cccnc1)[C@@H]1CN(C(=O)C1)c1ccc2OCCOc2c1

$$$$

  CDD

  0  0  0  0  0  0            999 V2000
M  END
> <Molecule Name>
CVD-0008584

> <SMILES>
Fc1ccc(NC(=O)CN2CCC(CC2)C(=O)Nc2ccc(Cl)nc2)cc1

$$$$

  CDD

  0  0  0  0  0  0            999 V2000
M  END
> <Molecule Name>
CVD-0008583

> <SMILES>
Cc1ccnc2N(CC(=O)Nc12)C(=O)C1CCNCC1

$$$$

  CDD

  0  0  0  0  0  0            999 V2000
M  END
> <Molecule Name>
CVD-0008582

> <SMILES>
Fc1ccc(NC(=O)Cn2c3cccnc3c(=O)n(Cc3ccncc3)c2=O)c(F)c1

$$$$

  CDD

  0  0  0  0  0  0            999 V2000
M  END
> <Molecule Name>
CVD-0008581

> <SMILES>
Cc1cc2nc(SCC(=O)Nc3cccnc3Cl)n(C)c(=O)c2[nH]1

$$$$

  CDD

  0  0  0  0  0  0            999 V2000
M  END
> <Molecule Name>
CVD-0008580

> <SMILES>
Fc1ccc(cc1)-n1c2ncccc2n(CC(=O)NCc2cc(F)ccc2F)c1=O

$$$$

  CDD

  0  0  0  0  0  0            999 V2000
M  END
> <Molecule Name>
CVD-0008579

> <SMILES>
COc1cc(OC)cc(c1)N1C[C@@H](CC1=O)C(=O)Nc1ccc(N)nc1

$$$$

  CDD

  0  0  0  0  0  0            999 V2000
M  END
> <Molecule Name>
CVD-0008578

> <SMILES>
CC1(C)N(CC(=O)Nc2ccc(N)nc2)C(=O)NC1=O

$$$$

  CDD

  0  0  0  0  0  0            999 V2000
M  END
> <Molecule Name>
CVD-0008577

> <SMILES>
C[C@H]1C[C@@H](CCN1)C(=O)N1CC(=O)Nc2c(C)ccnc12

$$$$

  CDD

  0  0  0  0  0  0            999 V2000
M  END
> <Molecule Name>
CVD-0008576

> <SMILES>
CC(=O)Nc1ccc(cc1)N1C[C@H](CC1=O)C(=O)Nc1cccnc1

$$$$

  CDD

  0  0  0  0  0  0            999 V2000
M  END
> <Molecule Name>
CVD-0008575

> <SMILES>
Cn1c2ncccc2n(CC(=O)NCc2ccco2)c(=O)c1=O

$$$$

  CDD

  0  0  0  0  0  0            999 V2000
M  END
> <Molecule Name>
CVD-0008574

> <SMILES>
COc1ccc(cc1)N([C@H](C)C(=O)Nc1cccnc1)S(C)(=O)=O

$$$$

  CDD

  0  0  0  0  0  0            999 V2000
M  END
> <Molecule Name>
CVD-0008573

> <SMILES>
Cn1cc(cn1)[C@H]1CNC[C@H]1C(=O)NCCC(=O)Nc1cccnc1

$$$$

  CDD

  0  0  0  0  0  0            999 V2000
M  END
> <Molecule Name>
CVD-0008572

> <SMILES>
Nc1ccc(NC(=O)CCN2C(=O)[C@H]3[C@@H]4CC[C@H](O4)[C@H]3C2=O)cn1

$$$$

  CDD

  0  0  0  0  0  0            999 V2000
M  END
> <Molecule Name>
CVD-0008571

> <SMILES>
Nc1ccc(NC(=O)[C@@H]2CN(C(=O)C2)c2ccc3OCCOc3c2)cn1

$$$$

  CDD

  0  0  0  0  0  0            999 V2000
M  END
> <Molecule Name>
CVD-0008570

> <SMILES>
Cn1cc(cn1)[C@H]1CNC[C@H]1C(=O)NCC(=O)Nc1cccnc1

$$$$

  CDD

  0  0  0  0  0  0            999 V2000
M  END
> <Molecule Name>
CVD-0008569

> <SMILES>
C[C@@H](N1C(=O)[C@H]2[C@@H]3CC[C@H](O3)[C@H]2C1=O)C(=O)Nc1ccc(N)nc1

$$$$

  CDD

  0  0  0  0  0  0            999 V2000
M  END
> <Molecule Name>
CVD-0008568

> <SMILES>
COc1cc(Cn2c3cccnc3c(=O)n(Cc3ccncc3)c2=O)cc(OC)c1

$$$$

  CDD

  0  0  0  0  0  0            999 V2000
M  END
> <Molecule Name>
CVD-0008567

> <SMILES>
Fc1ccc(F)c(CNC(=O)Cn2c3cccnc3n3cnnc3c2=O)c1

$$$$

  CDD

  0  0  0  0  0  0            999 V2000
M  END
> <Molecule Name>
CVD-0008566

> <SMILES>
O=C(CNC(=O)C1(CCNCC1)n1cccn1)Nc1cccnc1

$$$$

  CDD

  0  0  0  0  0  0            999 V2000
M  END
> <Molecule Name>
CVD-0008565

> <SMILES>
Cc1nnc2n1c1ncccc1n(CC(=O)NCc1cc(F)cc(F)c1)c2=O

$$$$

  CDD

  0  0  0  0  0  0            999 V2000
M  END
> <Molecule Name>
CVD-0008564

> <SMILES>
COc1ccc(N(CC(=O)Nc2cccnc2)S(C)(=O)=O)c(OC)c1

$$$$

  CDD

  0  0  0  0  0  0            999 V2000
M  END
> <Molecule Name>
CVD-0008563

> <SMILES>
Cc1nnc2n1c1ncccc1n(CC(=O)NCc1cc(F)ccc1F)c2=O

$$$$

  CDD

  0  0  0  0  0  0            999 V2000
M  END
> <Molecule Name>
CVD-0008562

> <SMILES>
Cn1c2ncc(NC(=O)[C@@H]3CCCN3)cc2c(=O)n(C)c1=O

$$$$

  CDD

  0  0  0  0  0  0            999 V2000
M  END
> <Molecule Name>
CVD-0008561

> <SMILES>
COc1ccc(cc1)-n1c2ncccc2n(CC(=O)NCc2cc(F)cc(F)c2)c1=O

$$$$

  CDD

  0  0  0  0  0  0            999 V2000
M  END
> <Molecule Name>
CVD-0008560

> <SMILES>
Cn1c2ncc(NC(=O)[C@H]3C[C@H](F)CN3)cc2c(=O)n(C)c1=O

$$$$

  CDD

  0  0  0  0  0  0            999 V2000
M  END
> <Molecule Name>
CVD-0008559

> <SMILES>
COc1ccc(cc1)-n1c2ncccc2n(CC(=O)NCc2cc(F)ccc2F)c1=O

$$$$

  CDD

  0  0  0  0  0  0            999 V2000
M  END
> <Molecule Name>
CVD-0008558

> <SMILES>
COc1ccc(cc1)[C@@H]1Sc2ccccc2N(CCN(C)C)C(=O)[C@@H]1OC(C)=O

$$$$

  CDD

  0  0  0  0  0  0            999 V2000
M  END
> <Molecule Name>
CVD-0008557

> <SMILES>
C[C@@H](c1ncncc1F)[C@](O)(Cn1cncn1)c1ccc(F)cc1F

$$$$

  CDD

  0  0  0  0  0  0            999 V2000
M  END
> <Molecule Name>
CVD-0008556

> <SMILES>
CC(=O)Nc1nnc(s1)S(N)(=O)=O

$$$$

  CDD

  0  0  0  0  0  0            999 V2000
M  END
> <Molecule Name>
CVD-0008555

> <SMILES>
NS(=O)(=O)c1cc(Cl)c(Cl)c(c1)S(N)(=O)=O

$$$$

  CDD

  0  0  0  0  0  0            999 V2000
M  END
> <Molecule Name>
CVD-0008554

> <SMILES>
CN(C)CCc1c[nH]c2ccc(C[C@@H]3COC(=O)N3)cc12

$$$$

  CDD

  0  0  0  0  0  0            999 V2000
M  END
> <Molecule Name>
CVD-0008553

> <SMILES>
NC(=O)CN1C[C@H](O)CC1=O

$$$$

  CDD

  0  0  0  0  0  0            999 V2000
M  END
> <Molecule Name>
CVD-0008552

> <SMILES>
Oc1ccc2c(Oc3cc(O)ccc3C22OC(=O)c3ccccc23)c1

$$$$

  CDD

  0  0  0  0  0  0            999 V2000
M  END
> <Molecule Name>
CVD-0008551

> <SMILES>
Clc1ccc2n(C3CCN(CCCn4c5ccccc5[nH]c4=O)CC3)c(=O)[nH]c2c1

$$$$

  CDD

  0  0  0  0  0  0            999 V2000
M  END
> <Molecule Name>
CVD-0008550

> <SMILES>
NS(=O)(=O)c1cc2c(cc1Cl)N=CNS2(=O)=O

$$$$

  CDD

  0  0  0  0  0  0            999 V2000
M  END
> <Molecule Name>
CVD-0008549

> <SMILES>
CN1[C@H]2C[C@@H](O)[C@H]1C[C@H](C2)OC(=O)[C@H](CO)c1ccccc1

$$$$

  CDD

  0  0  0  0  0  0            999 V2000
M  END
> <Molecule Name>
CVD-0008548

> <SMILES>
COc1ccc2nccc([C@@H](O)[C@@H]3C[C@H]4CCN3C[C@@H]4C=C)c2c1

$$$$

  CDD

  0  0  0  0  0  0            999 V2000
M  END
> <Molecule Name>
CVD-0008547

> <SMILES>
CCN[C@@H]1C[C@H](C)S(=O)(=O)c2sc(cc12)S(N)(=O)=O

$$$$

  CDD

  0  0  0  0  0  0            999 V2000
M  END
> <Molecule Name>
CVD-0008546

> <SMILES>
CC(C)(C)NC[C@H](O)c1ccc(O)c(CO)c1

$$$$

  CDD

  0  0  0  0  0  0            999 V2000
M  END
> <Molecule Name>
CVD-0008545

> <SMILES>
OC(=O)CC(O)(CC(O)=O)C(O)=O

$$$$

  CDD

  0  0  0  0  0  0            999 V2000
M  END
> <Molecule Name>
CVD-0008544

> <SMILES>
Nc1ccn([C@H]2CS[C@H](CO)O2)c(=O)n1

$$$$

  CDD

  0  0  0  0  0  0            999 V2000
M  END
> <Molecule Name>
CVD-0008543

> <SMILES>
Cn1c2ncn(CCO)c2c(=O)n(C)c1=O

$$$$

  CDD

  0  0  0  0  0  0            999 V2000
M  END
> <Molecule Name>
CVD-0008542

> <SMILES>
COCCCN1CCC(CC1)NC(=O)c1cc(Cl)c(N)c2CCOc12

$$$$

  CDD

  0  0  0  0  0  0            999 V2000
M  END
> <Molecule Name>
CVD-0008541

> <SMILES>
Oc1ccc(cc1)C1(OC(=O)c2ccccc12)c1ccc(O)cc1

$$$$

  CDD

  0  0  0  0  0  0            999 V2000
M  END
> <Molecule Name>
CVD-0008540

> <SMILES>
CC(C)(C)NC[C@@H](O)c1ccc(O)c(CO)c1

$$$$

  CDD

  0  0  0  0  0  0            999 V2000
M  END
> <Molecule Name>
CVD-0008539

> <SMILES>
C[C@@H](Cc1ccc(O)c(O)c1)[C@H](C)Cc1ccc(O)c(O)c1

$$$$

  CDD

  0  0  0  0  0  0            999 V2000
M  END
> <Molecule Name>
CVD-0008538

> <SMILES>
OC[C@@H]1O[C@@H](O[C@]2(CCl)O[C@H](CCl)[C@H](O)[C@H]2O)[C@@H](O)[C@H](O)[C@H]1Cl

$$$$

  CDD

  0  0  0  0  0  0            999 V2000
M  END
> <Molecule Name>
CVD-0008537

> <SMILES>
Cc1c(Cc2ccc3ccccc3n2)c2cc(F)ccc2n1CC(O)=O

$$$$

  CDD

  0  0  0  0  0  0            999 V2000
M  END
> <Molecule Name>
CVD-0008536

> <SMILES>
OCC(CO)N[C@H]1C[C@@](O)(CO)[C@H](O)[C@H](O)[C@@H]1O

$$$$

  CDD

  0  0  0  0  0  0            999 V2000
M  END
> <Molecule Name>
CVD-0008535

> <SMILES>
CN1[C@H]2CC[C@H]1CC(C2)OC(=O)[C@@H](CO)c1ccccc1

$$$$

  CDD

  0  0  0  0  0  0            999 V2000
M  END
> <Molecule Name>
CVD-0008534

> <SMILES>
Oc1ccc(cc1)[C@@H]1CNCCc2c(Cl)c(O)c(O)cc12

$$$$

  CDD

  0  0  0  0  0  0            999 V2000
M  END
> <Molecule Name>
CVD-0008533

> <SMILES>
Nc1cccc2C(=O)N(Cc12)[C@@H]1CCC(=O)NC1=O

$$$$

  CDD

  0  0  0  0  0  0            999 V2000
M  END
> <Molecule Name>
CVD-0008532

> <SMILES>
CC1(C)O[C@H]2CO[C@@]3(COS(N)(=O)=O)OC(C)(C)O[C@@H]3[C@H]2O1

$$$$

  CDD

  0  0  0  0  0  0            999 V2000
M  END
> <Molecule Name>
CVD-0008531

> <SMILES>
O[C@H](Cc1ccc(O)c(O)c1)C(O)=O

$$$$

  CDD

  0  0  0  0  0  0            999 V2000
M  END
> <Molecule Name>
CVD-0008530

> <SMILES>
CCC[C@@H]1C[C@H](N(C)C1)C(=O)N[C@H]([C@H](C)O)[C@H]1O[C@H](SC)[C@@H](O)[C@H](O)[C@H]1O

$$$$

  CDD

  0  0  0  0  0  0            999 V2000
M  END
> <Molecule Name>
CVD-0008529

> <SMILES>
CN[C@@H]1[C@@H](O)[C@H](NC)[C@H]2O[C@]3(O)[C@@H](O[C@@H](C)CC3=O)O[C@H]2[C@H]1O

$$$$

  CDD

  0  0  0  0  0  0            999 V2000
M  END
> <Molecule Name>
CVD-0008528

> <SMILES>
Nc1nc(=O)n(cc1F)[C@H]1CS[C@H](CO)O1

$$$$

  CDD

  0  0  0  0  0  0            999 V2000
M  END
> <Molecule Name>
CVD-0008527

> <SMILES>
OC[C@H]1O[C@@H]([C@H](O)[C@@H](O)[C@@H]1O)c1ccc(F)c(Cc2cc3ccccc3s2)c1

$$$$

  CDD

  0  0  0  0  0  0            999 V2000
M  END
> <Molecule Name>
CVD-0008526

> <SMILES>
CC(=O)Nc1cccc2n(CC(O)=O)c(C)c(Sc3ccc(Cl)cc3)c12

$$$$

  CDD

  0  0  0  0  0  0            999 V2000
M  END
> <Molecule Name>
CVD-0008525

> <SMILES>
CC(C)(C)NC[C@H](O)c1cc(O)cc(O)c1

$$$$

  CDD

  0  0  0  0  0  0            999 V2000
M  END
> <Molecule Name>
CVD-0008524

> <SMILES>
C[C@H](O)Cn1cnc2n(C)c(=O)n(C)c(=O)c12

$$$$

  CDD

  0  0  0  0  0  0            999 V2000
M  END
> <Molecule Name>
CVD-0008523

> <SMILES>
N[C@H]([C@@H](O)c1ccc(O)c(O)c1)C(O)=O

$$$$

  CDD

  0  0  0  0  0  0            999 V2000
M  END
> <Molecule Name>
CVD-0008522

> <SMILES>
OC[C@@H]1O[C@@H](C[C@H]1O)n1cc(\C=C\Br)c(=O)[nH]c1=O

$$$$

  CDD

  0  0  0  0  0  0            999 V2000
M  END
> <Molecule Name>
CVD-0008521

> <SMILES>
OC(=O)CCCN1CCC(CC1)O[C@@H](c1ccc(Cl)cc1)c1ccccn1

$$$$

  CDD

  0  0  0  0  0  0            999 V2000
M  END
> <Molecule Name>
CVD-0008520

> <SMILES>
Nc1ncn([C@@H]2C[C@@H](O)[C@H](CO)O2)c(=O)n1

$$$$

  CDD

  0  0  0  0  0  0            999 V2000
M  END
> <Molecule Name>
CVD-0008519

> <SMILES>
Cc1cn([C@@H]2O[C@@H](CO)[C@H](O)[C@@H]2F)c(=O)[nH]c1=O

$$$$

  CDD

  0  0  0  0  0  0            999 V2000
M  END
> <Molecule Name>
CVD-0008518

> <SMILES>
Oc1ccc(cc1)-c1cc(=O)c2c(O)cc(O)cc2o1

$$$$

  CDD

  0  0  0  0  0  0            999 V2000
M  END
> <Molecule Name>
CVD-0008517

> <SMILES>
Oc1cc(O)c2c(c1)oc(cc2=O)-c1ccc(O)c(O)c1

$$$$

  CDD

  0  0  0  0  0  0            999 V2000
M  END
> <Molecule Name>
CVD-0008516

> <SMILES>
OCCN1C[C@H](O)[C@@H](O)[C@H](O)[C@H]1CO

$$$$

  CDD

  0  0  0  0  0  0            999 V2000
M  END
> <Molecule Name>
CVD-0008515

> <SMILES>
OC[C@@H]1O[C@@H]([C@H](O)[C@H]1O)n1ccc(=O)[nH]c1=O

$$$$

  CDD

  0  0  0  0  0  0            999 V2000
M  END
> <Molecule Name>
CVD-0008514

> <SMILES>
OC[C@@H]1O[C@@H](C[C@H]1O)n1cc(F)c(=O)[nH]c1=O

$$$$

  CDD

  0  0  0  0  0  0            999 V2000
M  END
> <Molecule Name>
CVD-0008513

> <SMILES>
OC[C@@H]1O[C@@H](C[C@H]1O)n1ccc(=O)[nH]c1=O

$$$$

  CDD

  0  0  0  0  0  0            999 V2000
M  END
> <Molecule Name>
CVD-0008512

> <SMILES>
CC(=O)[C@H]1C(=O)C=C2Oc3c(c(O)c(C)c(O)c3C(C)=O)[C@]2(C)C1=O

$$$$

  CDD

  0  0  0  0  0  0            999 V2000
M  END
> <Molecule Name>
CVD-0008511

> <SMILES>
Cn1c2ncn(C[C@H](O)CO)c2c(=O)n(C)c1=O

$$$$

  CDD

  0  0  0  0  0  0            999 V2000
M  END
> <Molecule Name>
CVD-0008510

> <SMILES>
OC[C@H]1CC[C@H](O1)n1cnc2c1nc[nH]c2=O

$$$$

  CDD

  0  0  0  0  0  0            999 V2000
M  END
> <Molecule Name>
CVD-0008509

> <SMILES>
OC[C@H]1O[C@@H](OCCc2ccc(O)cc2)[C@H](O)[C@@H](O)[C@H]1O

$$$$

  CDD

  0  0  0  0  0  0            999 V2000
M  END
> <Molecule Name>
CVD-0008508

> <SMILES>
Nc1ncnc2n(cnc12)[C@H]1C[C@@H](O)[C@@H](CO)O1

$$$$

  CDD

  0  0  0  0  0  0            999 V2000
M  END
> <Molecule Name>
CVD-0008507

> <SMILES>
OC(=O)CNC(=O)C1C(=O)N(C2CCCCC2)C(=O)N(C2CCCCC2)C1=O

$$$$

  CDD

  0  0  0  0  0  0            999 V2000
M  END
> <Molecule Name>
CVD-0008506

> <SMILES>
NC(=O)c1ncn(n1)[C@H]1O[C@@H](CO)[C@H](O)[C@H]1O

$$$$

  CDD

  0  0  0  0  0  0            999 V2000
M  END
> <Molecule Name>
CVD-0008505

> <SMILES>
CC(C)(C)NC[C@@H](O)COc1nsnc1N1CCOCC1

$$$$

  CDD

  0  0  0  0  0  0            999 V2000
M  END
> <Molecule Name>
CVD-0008504

> <SMILES>
CNS(=O)(=O)CC1CCC(CC1)N(C)c1ncnc2[nH]ccc12

$$$$

  CDD

  0  0  0  0  0  0            999 V2000
M  END
> <Molecule Name>
CVD-0008503

> <SMILES>
Nc1nc2n(cnc2c(=O)[nH]1)[C@@H]1C[C@@H](O)[C@H](CO)O1

$$$$

  CDD

  0  0  0  0  0  0            999 V2000
M  END
> <Molecule Name>
CVD-0008502

> <SMILES>
C[C@@H](CN1CC(=O)NC(=O)C1)N1CC(=O)NC(=O)C1

$$$$

  CDD

  0  0  0  0  0  0            999 V2000
M  END
> <Molecule Name>
CVD-0008501

> <SMILES>
Nc1nc(=O)c2ncn([C@@H]3C[C@@H](O)[C@@H](CO)C3=C)c2[nH]1

$$$$

  CDD

  0  0  0  0  0  0            999 V2000
M  END
> <Molecule Name>
CVD-0008500

> <SMILES>
CN1[C@@H](CCl)Nc2cc(Cl)c(cc2S1(=O)=O)S(N)(=O)=O

$$$$

  CDD

  0  0  0  0  0  0            999 V2000
M  END
> <Molecule Name>
CVD-0008499

> <SMILES>
C[C@@H]1O[C@@H]([C@H](O)[C@H]1O)n1cc(F)c(=O)[nH]c1=O

$$$$

  CDD

  0  0  0  0  0  0            999 V2000
M  END
> <Molecule Name>
CVD-0008498

> <SMILES>
Nc1ccn([C@H]2O[C@@H](CO)[C@H](O)[C@H]2O)c(=O)n1

$$$$

  CDD

  0  0  0  0  0  0            999 V2000
M  END
> <Molecule Name>
CVD-0008497

> <SMILES>
Oc1ccc2[C@H]3c4cc(O)c(O)cc4C[C@]3(O)COc2c1O

$$$$

  CDD

  0  0  0  0  0  0            999 V2000
M  END
> <Molecule Name>
CVD-0008496

> <SMILES>
CN1C(=N)N[C@@](C)(CS1(=O)=O)c1cc(NC(=O)c2ccc(F)cn2)ccc1F

$$$$

  CDD

  0  0  0  0  0  0            999 V2000
M  END
> <Molecule Name>
CVD-0008495

> <SMILES>
Cn1c2ncn(CC3OCCO3)c2c(=O)n(C)c1=O

$$$$

  CDD

  0  0  0  0  0  0            999 V2000
M  END
> <Molecule Name>
CVD-0008494

> <SMILES>
CC(C)(C#N)c1cc(Cn2cncn2)cc(c1)C(C)(C)C#N

$$$$

  CDD

  0  0  0  0  0  0            999 V2000
M  END
> <Molecule Name>
CVD-0008493

> <SMILES>
COc1ccc(C[C@H]2COC(=O)[C@@H]2Cc2ccc(O)c(OC)c2)cc1OC

$$$$

  CDD

  0  0  0  0  0  0            999 V2000
M  END
> <Molecule Name>
CVD-0008492

> <SMILES>
COc1cc2n(cc(C(O)=O)c(=O)c2cc1Cc1cccc(Cl)c1F)[C@H](CO)C(C)C

$$$$

  CDD

  0  0  0  0  0  0            999 V2000
M  END
> <Molecule Name>
CVD-0008491

> <SMILES>
C[C@@]12C[C@H](O)[C@@H]3[C@@H](CCC4=CC(=O)CC[C@@]34C)[C@@H]1CC[C@@]2(O)C(=O)CO

$$$$

  CDD

  0  0  0  0  0  0            999 V2000
M  END
> <Molecule Name>
CVD-0008490

> <SMILES>
O=C1N([C@H]2CCC(=O)NC2=O)C(=O)c2ccccc12

$$$$

  CDD

  0  0  0  0  0  0            999 V2000
M  END
> <Molecule Name>
CVD-0008489

> <SMILES>
Cc1cn([C@@H]2C[C@@H](O)[C@H](CO)O2)c(=O)[nH]c1=O

$$$$

  CDD

  0  0  0  0  0  0            999 V2000
M  END
> <Molecule Name>
CVD-0008488

> <SMILES>
Nc1nc(NC2CC2)c2ncn([C@@H]3C[C@@H](CO)C=C3)c2n1

$$$$

  CDD

  0  0  0  0  0  0            999 V2000
M  END
> <Molecule Name>
CVD-0008487

> <SMILES>
OC[C@@H]1O[C@@H](C[C@H]1O)n1cc(I)c(=O)[nH]c1=O

$$$$

  CDD

  0  0  0  0  0  0            999 V2000
M  END
> <Molecule Name>
CVD-0008486

> <SMILES>
Nc1ncn([C@H]2O[C@@H](CO)[C@H](O)[C@H]2O)c(=O)n1

$$$$

  CDD

  0  0  0  0  0  0            999 V2000
M  END
> <Molecule Name>
CVD-0008485

> <SMILES>
Nc1nc(Cl)nc2n(cnc12)[C@@H]1C[C@@H](O)[C@H](CO)O1

$$$$

  CDD

  0  0  0  0  0  0            999 V2000
M  END
> <Molecule Name>
CVD-0008484

> <SMILES>
NC(=O)c1ncn([C@H]2O[C@@H](CO)[C@H](O)[C@H]2O)c1O

$$$$

  CDD

  0  0  0  0  0  0            999 V2000
M  END
> <Molecule Name>
CVD-0008483

> <SMILES>
COc1cc2CC[C@H](NC(C)=O)c3cc(=O)c(OC)ccc3-c2c(OC)c1OC

$$$$

  CDD

  0  0  0  0  0  0            999 V2000
M  END
> <Molecule Name>
CVD-0008482

> <SMILES>
COc1ccc(CC(C)(C)NC[C@@H](O)c2cc(O)cc3NC(=O)COc23)cc1

$$$$

  CDD

  0  0  0  0  0  0            999 V2000
M  END
> <Molecule Name>
CVD-0008481

> <SMILES>
Cc1c(O)c(C)c2O[C@H](CC(=O)c2c1O)c1ccc(O)cc1

$$$$

  CDD

  0  0  0  0  0  0            999 V2000
M  END
> <Molecule Name>
CVD-0008480

> <SMILES>
Nc1cccc2C(=O)N([C@H]3CCC(=O)NC3=O)C(=O)c12

$$$$

  CDD

  0  0  0  0  0  0            999 V2000
M  END
> <Molecule Name>
CVD-0008479

> <SMILES>
CN(C)CCN1C(=O)c2cccc3cc(N)cc(C1=O)c23

$$$$

  CDD

  0  0  0  0  0  0            999 V2000
M  END
> <Molecule Name>
CVD-0008478

> <SMILES>
NS(=O)(=O)c1cc(ccc1Cl)[C@]1(O)NC(=O)c2ccccc12

$$$$

  CDD

  0  0  0  0  0  0            999 V2000
M  END
> <Molecule Name>
CVD-0008477

> <SMILES>
Nc1nc(Cl)nc2n(cnc12)[C@@H]1O[C@@H](CO)[C@H](O)[C@@H]1F

$$$$

  CDD

  0  0  0  0  0  0            999 V2000
M  END
> <Molecule Name>
CVD-0008476

> <SMILES>
O[C@@H]1CCCN[C@@H]1CC(=O)Cn1cnc2cc(Br)c(Cl)cc2c1=O

$$$$

  CDD

  0  0  0  0  0  0            999 V2000
M  END
> <Molecule Name>
CVD-0008475

> <SMILES>
Cc1ccc(NS(=O)(=O)c2cccc(c2)C#N)c2[nH]cc(C#N)c12

$$$$

  CDD

  0  0  0  0  0  0            999 V2000
M  END
> <Molecule Name>
CVD-0008474

> <SMILES>
OC[C@@H]1O[C@@H]([C@H](O)[C@H]1O)n1cnc2c1nc[nH]c2=O

$$$$

  CDD

  0  0  0  0  0  0            999 V2000
M  END
> <Molecule Name>
CVD-0008473

> <SMILES>
OC[C@H]1O[C@H](O[C@H]2OC=C[C@@H]3[C@H](O)C=C(CO)[C@H]23)[C@@H](O)[C@H](O)[C@H]1O

$$$$

  CDD

  0  0  0  0  0  0            999 V2000
M  END
> <Molecule Name>
CVD-0008472

> <SMILES>
Cc1cc2ncc(cn2n1)C(=O)NCC(C)(C)NCC(=O)N1CCC[C@@H]1C#N

$$$$

  CDD

  0  0  0  0  0  0            999 V2000
M  END
> <Molecule Name>
CVD-0008471

> <SMILES>
CC[C@]1(O)C(=O)OCc2c1cc1-c3nc4ccc(O)c(CN(C)C)c4cc3Cn1c2=O

$$$$

  CDD

  0  0  0  0  0  0            999 V2000
M  END
> <Molecule Name>
CVD-0008470

> <SMILES>
NCCNc1ccc(NCCN)c2C(=O)c3cnccc3C(=O)c12

$$$$

  CDD

  0  0  0  0  0  0            999 V2000
M  END
> <Molecule Name>
CVD-0008469

> <SMILES>
O[C@@H]1Cc2c(O)cc(O)cc2O[C@@H]1c1ccc(O)c(O)c1

$$$$

  CDD

  0  0  0  0  0  0            999 V2000
M  END
> <Molecule Name>
CVD-0008468

> <SMILES>
Oc1cc(O)c2C(=O)C[C@@H](Oc2c1)c1ccc(O)c(O)c1

$$$$

  CDD

  0  0  0  0  0  0            999 V2000
M  END
> <Molecule Name>
CVD-0008467

> <SMILES>
O[C@H]1[C@@H](Oc2cc(O)cc(O)c2C1=O)c1ccc(O)c(O)c1

$$$$

  CDD

  0  0  0  0  0  0            999 V2000
M  END
> <Molecule Name>
CVD-0008466

> <SMILES>
Nc1nc(=O)c2ncn([C@H]3C[C@H](O)[C@H](CO)C3=C)c2[nH]1

$$$$

  CDD

  0  0  0  0  0  0            999 V2000
M  END
> <Molecule Name>
CVD-0008465

> <SMILES>
C[C@H]1COc2c(c(F)cc3c2n1cc(C(O)=O)c3=O)C1(N)CC1

$$$$

  CDD

  0  0  0  0  0  0            999 V2000
M  END
> <Molecule Name>
CVD-0008464

> <SMILES>
CC(C)Nc1cc(-c2c[nH]c(c2)C(=O)N[C@H](CO)c2cccc(Cl)c2)c(Cl)cn1

$$$$

  CDD

  0  0  0  0  0  0            999 V2000
M  END
> <Molecule Name>
CVD-0008463

> <SMILES>
CCOC(=O)[C@@]1(Cc2ccc(O)cc2)N[C@H]([C@@H]2[C@H]1C(=O)N(C)C2=O)c1ccccc1C

$$$$

  CDD

  0  0  0  0  0  0            999 V2000
M  END
> <Molecule Name>
CVD-0008462

> <SMILES>
N[C@@H](Cc1ccc(O)cc1)C(=O)NCC(O)=O

$$$$

  CDD

  0  0  0  0  0  0            999 V2000
M  END
> <Molecule Name>
CVD-0008461

> <SMILES>
C[C@@H](NC(=O)[C@@H](N)Cc1ccc(O)cc1)C(O)=O

$$$$

  CDD

  0  0  0  0  0  0            999 V2000
M  END
> <Molecule Name>
CVD-0008460

> <SMILES>
C[C@](O)(CN[C@H](Cc1ccc(O)cc1)C(O)=O)C#Cc1ccccc1

$$$$

  CDD

  0  0  0  0  0  0            999 V2000
M  END
> <Molecule Name>
CVD-0008459

> <SMILES>
O=C1NC(=S)N[C@H]1Cc1ccc2OCOc2c1

$$$$

  CDD

  0  0  0  0  0  0            999 V2000
M  END
> <Molecule Name>
CVD-0008458

> <SMILES>
C[C@@]1(Cc2ccc3OCOc3c2)NC(=O)N(Cc2ccc(F)cc2)C1=O

$$$$

  CDD

  0  0  0  0  0  0            999 V2000
M  END
> <Molecule Name>
CVD-0008457

> <SMILES>
COc1cc(O)cc(OC)c1C[C@H](NC(=O)c1ccccc1)C(O)=O

$$$$

  CDD

  0  0  0  0  0  0            999 V2000
M  END
> <Molecule Name>
CVD-0008456

> <SMILES>
CCOC(=O)[C@@]1(C#N)[C@H]2C=CC(=CN2[C@H]([C@@H]1c1ccc(OC)cc1)C(=O)c1ccc(OC)cc1)C#N

$$$$

  CDD

  0  0  0  0  0  0            999 V2000
M  END
> <Molecule Name>
CVD-0008455

> <SMILES>
N[C@@H](Cc1ccc2oc(=O)[nH]c2c1)C(O)=O

$$$$

  CDD

  0  0  0  0  0  0            999 V2000
M  END
> <Molecule Name>
CVD-0008454

> <SMILES>
COc1ccc(C[C@@](C)(NC(N)=O)C(O)=O)cc1OC

$$$$

  CDD

  0  0  0  0  0  0            999 V2000
M  END
> <Molecule Name>
CVD-0008453

> <SMILES>
CC(=O)N[C@@H](Cc1cc(Br)c(O)c(Br)c1)C(O)=O

$$$$

  CDD

  0  0  0  0  0  0            999 V2000
M  END
> <Molecule Name>
CVD-0008452

> <SMILES>
COc1cc2C[C@@H]3N(Cc2cc1OC)C(=O)N(CCCC(O)=O)C3=O

$$$$

  CDD

  0  0  0  0  0  0            999 V2000
M  END
> <Molecule Name>
CVD-0008451

> <SMILES>
N[C@@H](Cc1ccc(O)c(I)c1)C(O)=O

$$$$

  CDD

  0  0  0  0  0  0            999 V2000
M  END
> <Molecule Name>
CVD-0008450

> <SMILES>
COc1cc2C[C@@H](NCc2cc1O)C(O)=O

$$$$

  CDD

  0  0  0  0  0  0            999 V2000
M  END
> <Molecule Name>
CVD-0008449

> <SMILES>
N[C@@H](Cc1cc(I)c(O)c(I)c1)C(O)=O

$$$$

  CDD

  0  0  0  0  0  0            999 V2000
M  END
> <Molecule Name>
CVD-0008448

> <SMILES>
COc1cc(O)cc(OC)c1C[C@H](N)C(O)=O

$$$$

  CDD

  0  0  0  0  0  0            999 V2000
M  END
> <Molecule Name>
CVD-0008447

> <SMILES>
COC(=O)[C@H](Cc1ccc(O)cc1)N1Cc2ccccc2C1=O

$$$$

  CDD

  0  0  0  0  0  0            999 V2000
M  END
> <Molecule Name>
CVD-0008446

> <SMILES>
COC(=O)[C@H](Cc1ccc(OC)cc1)NC(C)=O

$$$$

  CDD

  0  0  0  0  0  0            999 V2000
M  END
> <Molecule Name>
CVD-0008445

> <SMILES>
COc1ccc(cc1)[C@H]1[C@H](N2C=Cc3ccccc3[C@@H]2C1(C#N)C#N)C(=O)c1ccccc1

$$$$

  CDD

  0  0  0  0  0  0            999 V2000
M  END
> <Molecule Name>
CVD-0008444

> <SMILES>
CC(C)[C@H](NC(=O)[C@@H](N)Cc1ccc(O)cc1)C(O)=O

$$$$

  CDD

  0  0  0  0  0  0            999 V2000
M  END
> <Molecule Name>
CVD-0008443

> <SMILES>
C[C@@]1(Cc2ccc3OCOc3c2)NC(=O)N(Cc2ccc(cc2)C#N)C1=O

$$$$

  CDD

  0  0  0  0  0  0            999 V2000
M  END
> <Molecule Name>
CVD-0008442

> <SMILES>
COC(=O)[C@H](N)Cc1cc(I)c(O)c(I)c1

$$$$

  CDD

  0  0  0  0  0  0            999 V2000
M  END
> <Molecule Name>
CVD-0008441

> <SMILES>
C[C@@]1(Cc2ccc3OCOc3c2)NC(=O)N(Cc2ccc(Br)cc2)C1=O

$$$$

  CDD

  0  0  0  0  0  0            999 V2000
M  END
> <Molecule Name>
CVD-0008440

> <SMILES>
N[C@@H](Cc1ccc(O)cc1)C(=O)Nc1ccc2ccccc2c1

$$$$

  CDD

  0  0  0  0  0  0            999 V2000
M  END
> <Molecule Name>
CVD-0008439

> <SMILES>
CCOC(=O)[C@@]1(Cc2ccc(O)cc2)N[C@@H]([C@H]2[C@@H]1C(=O)N(C)C2=O)c1ccccc1F

$$$$

  CDD

  0  0  0  0  0  0            999 V2000
M  END
> <Molecule Name>
CVD-0008438

> <SMILES>
CCN1C(=O)[C@@H]2[C@@H](N[C@@](Cc3ccc(O)cc3)([C@@H]2C1=O)C(=O)OC)c1ccccc1C

$$$$

  CDD

  0  0  0  0  0  0            999 V2000
M  END
> <Molecule Name>
CVD-0008437

> <SMILES>
COC(=O)[C@H](Cc1ccc(OC)cc1)N1C(=O)c2ccccc2C1=O

$$$$

  CDD

  0  0  0  0  0  0            999 V2000
M  END
> <Molecule Name>
CVD-0008436

> <SMILES>
COC(=O)[C@@H](Cc1ccc(O)cc1)NC(=O)c1ccco1

$$$$

  CDD

  0  0  0  0  0  0            999 V2000
M  END
> <Molecule Name>
CVD-0008435

> <SMILES>
C[C@@]1(Cc2ccc3OCOc3c2)NC(=O)N(CC(=O)NC2CCCC2)C1=O

$$$$

  CDD

  0  0  0  0  0  0            999 V2000
M  END
> <Molecule Name>
CVD-0008434

> <SMILES>
N[C@@H](Cc1ccc(O)c(N)c1)C(O)=O

$$$$

  CDD

  0  0  0  0  0  0            999 V2000
M  END
> <Molecule Name>
CVD-0008433

> <SMILES>
N[C@H](Cc1ccc(O)c(F)c1F)C(O)=O

$$$$

  CDD

  0  0  0  0  0  0            999 V2000
M  END
> <Molecule Name>
CVD-0008432

> <SMILES>
NC(=O)[C@@H](Cc1ccc(O)cc1)NC(=O)c1ccccc1

$$$$

  CDD

  0  0  0  0  0  0            999 V2000
M  END
> <Molecule Name>
CVD-0008431

> <SMILES>
COC(=O)[C@@]1(C#N)[C@H]2C=Cc3cc(OC)ccc3N2[C@H]([C@@H]1c1ccc(OC)cc1)C(C)=O

$$$$

  CDD

  0  0  0  0  0  0            999 V2000
M  END
> <Molecule Name>
CVD-0008430

> <SMILES>
OC(=O)[C@@H](Cc1ccc(O)cc1)NC(=O)c1ccco1

$$$$

  CDD

  0  0  0  0  0  0            999 V2000
M  END
> <Molecule Name>
CVD-0008429

> <SMILES>
OC(=O)[C@H](Cc1ccc(O)cc1)NC(=O)Nc1ccccc1

$$$$

  CDD

  0  0  0  0  0  0            999 V2000
M  END
> <Molecule Name>
CVD-0008428

> <SMILES>
Oc1ccc(C[C@H]2NC(=O)[C@H](Cc3ccc(O)cc3)NC2=O)cc1

$$$$

  CDD

  0  0  0  0  0  0            999 V2000
M  END
> <Molecule Name>
CVD-0008427

> <SMILES>
COc1ccc(C[C@H](NC(C)=O)C(O)=O)cc1

$$$$

  CDD

  0  0  0  0  0  0            999 V2000
M  END
> <Molecule Name>
CVD-0008426

> <SMILES>
CC(=O)N[C@@H](Cc1ccc(O)cc1)C(O)=O

$$$$

  CDD

  0  0  0  0  0  0            999 V2000
M  END
> <Molecule Name>
CVD-0008425

> <SMILES>
NCC(=O)N[C@@H](Cc1ccc(O)cc1)C(O)=O

$$$$

  CDD

  0  0  0  0  0  0            999 V2000
M  END
> <Molecule Name>
CVD-0008424

> <SMILES>
CC(C)(C)OC(=O)[C@@H]1N[C@H](Cc2ccc(O)cc12)C(O)=O

$$$$

  CDD

  0  0  0  0  0  0            999 V2000
M  END
> <Molecule Name>
CVD-0008423

> <SMILES>
CC(C)(C)OC(=O)[C@H]1N[C@@H](Cc2ccc(O)cc12)C(O)=O

$$$$

  CDD

  0  0  0  0  0  0            999 V2000
M  END
> <Molecule Name>
CVD-0008422

> <SMILES>
COc1cc2C[C@@H]3N(Cc2cc1OC)C(=O)N(CCCCCC(O)=O)C3=O

$$$$

  CDD

  0  0  0  0  0  0            999 V2000
M  END
> <Molecule Name>
CVD-0008421

> <SMILES>
CC(=O)N[C@@H](Cc1ccc(O)cc1)C(N)=O

$$$$

  CDD

  0  0  0  0  0  0            999 V2000
M  END
> <Molecule Name>
CVD-0008420

> <SMILES>
Oc1ccc(C[C@@H]2NC(=O)[C@H]3CCCN3C2=O)cc1

$$$$

  CDD

  0  0  0  0  0  0            999 V2000
M  END
> <Molecule Name>
CVD-0008419

> <SMILES>
NCC(=O)N[C@@H](Cc1ccc(O)cc1)C(N)=O

$$$$

  CDD

  0  0  0  0  0  0            999 V2000
M  END
> <Molecule Name>
CVD-0008418

> <SMILES>
COC(=O)[C@H](Cc1ccc(O)cc1)NC(=O)Cc1ccccc1

$$$$

  CDD

  0  0  0  0  0  0            999 V2000
M  END
> <Molecule Name>
CVD-0008417

> <SMILES>
CC(=O)N[C@H](Cc1ccc2OCOc2c1)C(O)=O

$$$$

  CDD

  0  0  0  0  0  0            999 V2000
M  END
> <Molecule Name>
CVD-0008416

> <SMILES>
Oc1ccc(C[C@H]2N=C3N(C2=O)C(=S)Nc2ccccc32)cc1

$$$$

  CDD

  0  0  0  0  0  0            999 V2000
M  END
> <Molecule Name>
CVD-0008415

> <SMILES>
COc1cc(C[C@@H](N)C(O)=O)ccc1O

$$$$

  CDD

  0  0  0  0  0  0            999 V2000
M  END
> <Molecule Name>
CVD-0008414

> <SMILES>
N[C@@H](Cc1cc(O)c(O)cc1O)C(O)=O

$$$$

  CDD

  0  0  0  0  0  0            999 V2000
M  END
> <Molecule Name>
CVD-0008413

> <SMILES>
COC(=O)[C@H](Cc1ccc(O)cc1)N1C(=O)c2ccccc2C1=O

$$$$

  CDD

  0  0  0  0  0  0            999 V2000
M  END
> <Molecule Name>
CVD-0008412

> <SMILES>
CC(=O)N[C@@H](Cc1cc(I)c(O)c(I)c1)C(O)=O

$$$$

  CDD

  0  0  0  0  0  0            999 V2000
M  END
> <Molecule Name>
CVD-0008411

> <SMILES>
COc1cc2C[C@@H]3N(Cc2cc1OC)C(=O)N(CCCC(=O)N1CCCC1)C3=O

$$$$

  CDD

  0  0  0  0  0  0            999 V2000
M  END
> <Molecule Name>
CVD-0008410

> <SMILES>
C[C@H](N)C(=O)N[C@@H](Cc1ccc(O)cc1)C(O)=O

$$$$

  CDD

  0  0  0  0  0  0            999 V2000
M  END
> <Molecule Name>
CVD-0008409

> <SMILES>
COc1ccc(cc1)C(=O)N[C@H](Cc1ccc(O)cc1)C(O)=O

$$$$

  CDD

  0  0  0  0  0  0            999 V2000
M  END
> <Molecule Name>
CVD-0008408

> <SMILES>
OC(=O)[C@H](Cc1ccc(O)cc1)NC(=O)CCl

$$$$

  CDD

  0  0  0  0  0  0            999 V2000
M  END
> <Molecule Name>
CVD-0008407

> <SMILES>
CC(C)(C)OC(=O)CN1C(=O)N[C@](C)(Cc2ccc3OCOc3c2)C1=O

$$$$

  CDD

  0  0  0  0  0  0            999 V2000
M  END
> <Molecule Name>
CVD-0008406

> <SMILES>
COc1cccc(NC(=O)CCN2C(=O)[C@@H]3Cc4cc(OC)c(OC)cc4CN3C2=O)c1

$$$$

  CDD

  0  0  0  0  0  0            999 V2000
M  END
> <Molecule Name>
CVD-0008405

> <SMILES>
C[C@H](O)[C@@H]1NC(=O)[C@@H](Cc2ccc(O)cc2)NC1=O

$$$$

  CDD

  0  0  0  0  0  0            999 V2000
M  END
> <Molecule Name>
CVD-0008404

> <SMILES>
COc1cc(C[C@@H](NC(=O)c2ccccc2)C(O)=O)ccc1O

$$$$

  CDD

  0  0  0  0  0  0            999 V2000
M  END
> <Molecule Name>
CVD-0008403

> <SMILES>
CC(=O)c1cc(C[C@H](N)C(O)=O)ccc1O

$$$$

  CDD

  0  0  0  0  0  0            999 V2000
M  END
> <Molecule Name>
CVD-0008402

> <SMILES>
OC(=O)[C@@H](Cc1ccc(O)cc1)n1cnnn1

$$$$

  CDD

  0  0  0  0  0  0            999 V2000
M  END
> <Molecule Name>
CVD-0008401

> <SMILES>
COc1cc2C[C@H](N(CC(=O)Nc3ccc(F)cc3)Cc2cc1OC)C(O)=O

$$$$

  CDD

  0  0  0  0  0  0            999 V2000
M  END
> <Molecule Name>
CVD-0008400

> <SMILES>
OC(=O)[C@@H](Cc1ccc(O)cc1)N1C(=O)CSC1=S

$$$$

  CDD

  0  0  0  0  0  0            999 V2000
M  END
> <Molecule Name>
CVD-0008399

> <SMILES>
NC(=O)[C@@H](Cc1ccc(O)cc1)NC(=O)[C@@H]1CCCN1

$$$$

  CDD

  0  0  0  0  0  0            999 V2000
M  END
> <Molecule Name>
CVD-0008398

> <SMILES>
OC(=O)[C@H](Cc1ccc(O)c(O)c1)NC(=O)c1cccnc1

$$$$

  CDD

  0  0  0  0  0  0            999 V2000
M  END
> <Molecule Name>
CVD-0008397

> <SMILES>
COC(=O)[C@@H](Cc1ccc(O)cc1I)NC(C)=O

$$$$

  CDD

  0  0  0  0  0  0            999 V2000
M  END
> <Molecule Name>
CVD-0008396

> <SMILES>
COc1cc2C[C@@H]3N(Cc2cc1OC)C(=O)N(CCC(=O)NCc1ccccn1)C3=O

$$$$

  CDD

  0  0  0  0  0  0            999 V2000
M  END
> <Molecule Name>
CVD-0008395

> <SMILES>
COC(=O)[C@@H](N)Cc1ccc(O)c(c1)C(C)=O

$$$$

  CDD

  0  0  0  0  0  0            999 V2000
M  END
> <Molecule Name>
CVD-0008394

> <SMILES>
CC(C)[C@H](N)C(=O)N[C@@H](Cc1ccc(O)cc1)C(O)=O

$$$$

  CDD

  0  0  0  0  0  0            999 V2000
M  END
> <Molecule Name>
CVD-0008393

> <SMILES>
COc1cc2c(CCN[C@]2(Cc2ccc(O)cc2)C(O)=O)cc1O

$$$$

  CDD

  0  0  0  0  0  0            999 V2000
M  END
> <Molecule Name>
CVD-0008392

> <SMILES>
COc1cc2C[C@@H](N(Cc2cc1OC)C(=O)Cn1cnc2ccccc2c1=O)C(O)=O

$$$$

  CDD

  0  0  0  0  0  0            999 V2000
M  END
> <Molecule Name>
CVD-0008391

> <SMILES>
OC(=O)[C@@H](Cc1ccc(O)cc1)N[C@@H]1CCS(=O)(=O)C1

$$$$

  CDD

  0  0  0  0  0  0            999 V2000
M  END
> <Molecule Name>
CVD-0008390

> <SMILES>
COc1ccc(C[C@@]2(NCCc3cc(O)c(OC)cc23)C(O)=O)cc1

$$$$

  CDD

  0  0  0  0  0  0            999 V2000
M  END
> <Molecule Name>
CVD-0008389

> <SMILES>
COc1cc2C[C@@H]3N(Cc2cc1OC)C(=O)N(CCC(=O)Nc1nccs1)C3=O

$$$$

  CDD

  0  0  0  0  0  0            999 V2000
M  END
> <Molecule Name>
CVD-0008388

> <SMILES>
OC(=O)[C@H](Cc1ccc(O)cc1)\N=C\c1ccc2ccccc2c1

$$$$

  CDD

  0  0  0  0  0  0            999 V2000
M  END
> <Molecule Name>
CVD-0008387

> <SMILES>
Cc1c(C[C@H](N)C(O)=O)ccc(O)c1O

$$$$

  CDD

  0  0  0  0  0  0            999 V2000
M  END
> <Molecule Name>
CVD-0008386

> <SMILES>
COc1ccc(cc1)[C@H]1[C@H](N2[C@H](C=Cc3ccccc23)C1(C#N)C#N)C(C)=O

$$$$

  CDD

  0  0  0  0  0  0            999 V2000
M  END
> <Molecule Name>
CVD-0008385

> <SMILES>
COc1ccc(cc1)[C@H]1[C@@H](N2[C@H](C=Cc3ccccc23)[C@]1(C#N)C(N)=O)C(=O)c1ccccc1

$$$$

  CDD

  0  0  0  0  0  0            999 V2000
M  END
> <Molecule Name>
CVD-0008384

> <SMILES>
C[C@@H]1CC(=O)N([C@H](Cc2ccc(O)cc2)C(O)=O)C1=O

$$$$

  CDD

  0  0  0  0  0  0            999 V2000
M  END
> <Molecule Name>
CVD-0008383

> <SMILES>
N[C@@H]([C@H](O)c1ccc(O)c(O)c1)C(O)=O

$$$$

  CDD

  0  0  0  0  0  0            999 V2000
M  END
> <Molecule Name>
CVD-0008382

> <SMILES>
OC(=O)[C@H](Cc1ccc(O)cc1)NC(=O)[C@@H]1CCCN1

$$$$

  CDD

  0  0  0  0  0  0            999 V2000
M  END
> <Molecule Name>
CVD-0008381

> <SMILES>
N[C@H](Cc1c(F)c(F)c(O)c(F)c1F)C(O)=O

$$$$

  CDD

  0  0  0  0  0  0            999 V2000
M  END
> <Molecule Name>
CVD-0008380

> <SMILES>
COc1cc2C[C@@H]3N(Cc2cc1OC)C(=O)N(CCC(=O)NCc1ccncc1)C3=O

$$$$

  CDD

  0  0  0  0  0  0            999 V2000
M  END
> <Molecule Name>
CVD-0008379

> <SMILES>
COc1ccc(cc1)[C@H]1[C@@H](N2[C@H](C=Cc3ccccc23)[C@]1(C#N)C(N)=O)C(=O)c1cccc(OC)c1

$$$$

  CDD

  0  0  0  0  0  0            999 V2000
M  END
> <Molecule Name>
CVD-0008378

> <SMILES>
OC(=O)[C@H](Cc1ccc(O)cc1)N1C(=O)[C@H]2CCCC[C@H]2C1=O

$$$$

  CDD

  0  0  0  0  0  0            999 V2000
M  END
> <Molecule Name>
CVD-0008377

> <SMILES>
COc1cc2C[C@@H]3N(Cc2cc1OC)C(=O)N(CCCC(=O)NC1CC1)C3=O

$$$$

  CDD

  0  0  0  0  0  0            999 V2000
M  END
> <Molecule Name>
CVD-0008376

> <SMILES>
COc1cc2C[C@@H]3N(Cc2cc1OC)C(=O)N(CCCC(=O)Nc1nccs1)C3=O

$$$$

  CDD

  0  0  0  0  0  0            999 V2000
M  END
> <Molecule Name>
CVD-0008375

> <SMILES>
COc1cc2C[C@@H]3N(Cc2cc1OC)C(=O)N(CCCC(=O)N1CCC(CC1)C(N)=O)C3=O

$$$$

  CDD

  0  0  0  0  0  0            999 V2000
M  END
> <Molecule Name>
CVD-0008374

> <SMILES>
OC(=O)[C@@H](Cc1ccc(O)cc1)N1C(=O)c2ccccc2C1=O

$$$$

  CDD

  0  0  0  0  0  0            999 V2000
M  END
> <Molecule Name>
CVD-0008373

> <SMILES>
COc1cc2C[C@@H]3N(Cc2cc1OC)C(=O)N(CCC(=O)N1CCCC1)C3=O

$$$$

  CDD

  0  0  0  0  0  0            999 V2000
M  END
> <Molecule Name>
CVD-0008372

> <SMILES>
CCOC(=O)[C@@H](Cc1cc(I)c(O)c(I)c1)NC(C)=O

$$$$

  CDD

  0  0  0  0  0  0            999 V2000
M  END
> <Molecule Name>
CVD-0008371

> <SMILES>
COc1cc2C[C@@H]3N(Cc2cc1OC)C(=O)N(CCC(=O)N1CCC(CC1)C(N)=O)C3=O

$$$$

  CDD

  0  0  0  0  0  0            999 V2000
M  END
> <Molecule Name>
CVD-0008370

> <SMILES>
COc1ccc(cc1OC)[C@H]1[C@H](N2C=Cc3ccccc3[C@@H]2C1(C#N)C#N)C(N)=O

$$$$

  CDD

  0  0  0  0  0  0            999 V2000
M  END
> <Molecule Name>
CVD-0008369

> <SMILES>
OC(=O)[C@H](Cc1ccc(O)cc1)N1C(=O)c2c(C1=O)c(Cl)c(Cl)c(Cl)c2Cl

$$$$

  CDD

  0  0  0  0  0  0            999 V2000
M  END
> <Molecule Name>
CVD-0008368

> <SMILES>
OC(=O)[C@H](Cc1ccc(O)cc1)N1Cc2ccccc2C1=O

$$$$

  CDD

  0  0  0  0  0  0            999 V2000
M  END
> <Molecule Name>
CVD-0008367

> <SMILES>
C[C@@]1(Cc2ccc3OCOc3c2)NC(=O)N(CCN2C(=O)c3ccccc3C2=O)C1=O

$$$$

  CDD

  0  0  0  0  0  0            999 V2000
M  END
> <Molecule Name>
CVD-0008366

> <SMILES>
COc1ccc([C@H]2[C@H](N3[C@H](C=Cc4ccccc34)C2(C#N)C#N)C(=O)C(C)(C)C)c(OC)c1

$$$$

  CDD

  0  0  0  0  0  0            999 V2000
M  END
> <Molecule Name>
CVD-0008365

> <SMILES>
COc1cc2CCN[C@](Cc3ccc(O)cc3)(C(O)=O)c2cc1OC

$$$$

  CDD

  0  0  0  0  0  0            999 V2000
M  END
> <Molecule Name>
CVD-0008364

> <SMILES>
COc1ccc(cc1OC)[C@@H]1N[C@H](Cc2cc(O)c(O)cc12)C(O)=O

$$$$

  CDD

  0  0  0  0  0  0            999 V2000
M  END
> <Molecule Name>
CVD-0008363

> <SMILES>
CC(C)CCNC(=O)C(N(Cc1cccs1)C(=O)Cn1nnc2ccccc12)c1ccc(F)cc1

$$$$

  CDD

  0  0  0  0  0  0            999 V2000
M  END
> <Molecule Name>
CVD-0008362

> <SMILES>
Cc1ccc(cc1)C1=N\C(=C/c2ccc(OC(=O)c3ccco3)cc2)C(=O)O1

$$$$

  CDD

  0  0  0  0  0  0            999 V2000
M  END
> <Molecule Name>
CVD-0008361

> <SMILES>
COc1cc(cc(OC)c1OC)C(N(C(=O)Cn1nnc2ccccc12)c1ccc(cc1)C(O)=O)C(=O)NC1CCCCC1

$$$$

  CDD

  0  0  0  0  0  0            999 V2000
M  END
> <Molecule Name>
CVD-0008360

> <SMILES>
COc1ccc(cc1OC)C1CC(=NN1C(=O)COC(=O)c1ccccc1O)c1cccs1

$$$$

  CDD

  0  0  0  0  0  0            999 V2000
M  END
> <Molecule Name>
CVD-0008359

> <SMILES>
COc1ccc(cc1COc1cccc(c1)[N+]([O-])=O)C1CC(=NN1C(=O)CCl)c1cccs1

$$$$

  CDD

  0  0  0  0  0  0            999 V2000
M  END
> <Molecule Name>
CVD-0008358

> <SMILES>
Cc1cc(C(=O)c2ccccc2)c(NC(=O)c2ccco2)s1

$$$$

  CDD

  0  0  0  0  0  0            999 V2000
M  END
> <Molecule Name>
CVD-0008357

> <SMILES>
CCOC(=O)COc1cccc2c1ncn(Cc1ccc(cc1)C(=O)OC)c2=O

$$$$

  CDD

  0  0  0  0  0  0            999 V2000
M  END
> <Molecule Name>
CVD-0008356

> <SMILES>
CN(Cc1ccccc1)C(=O)Cn1nnc(n1)-c1ccccc1NC(=O)c1ccccc1F

$$$$

  CDD

  0  0  0  0  0  0            999 V2000
M  END
> <Molecule Name>
CVD-0008355

> <SMILES>
COc1ccc(cc1)N1CCN(CC1)C(=O)CN(C)S(=O)(=O)c1ccc2SC(C)C(=O)Nc2c1

$$$$

  CDD

  0  0  0  0  0  0            999 V2000
M  END
> <Molecule Name>
CVD-0008354

> <SMILES>
CC(C)CCNC(=O)C(N(C(=O)Cn1nnc2ccccc12)c1cccc(c1)C(F)(F)F)c1ccc(O)cc1

$$$$

  CDD

  0  0  0  0  0  0            999 V2000
M  END
> <Molecule Name>
CVD-0008353

> <SMILES>
CC(C)(C)NC(=O)C(N(C(=O)Cn1nnc2ccccc12)c1ccccc1)c1ccc(Cl)cc1

$$$$

  CDD

  0  0  0  0  0  0            999 V2000
M  END
> <Molecule Name>
CVD-0008352

> <SMILES>
Cc1ccc(cc1)S(=O)(=O)N1CCN(CC1)S(=O)(=O)c1ccc2NC(=O)CC(=O)Nc2c1

$$$$

  CDD

  0  0  0  0  0  0            999 V2000
M  END
> <Molecule Name>
CVD-0008351

> <SMILES>
Cc1cccc(c1)-n1c(Cc2cccn2C)nnc1SCC(=O)NCc1ccc2OCOc2c1

$$$$

  CDD

  0  0  0  0  0  0            999 V2000
M  END
> <Molecule Name>
CVD-0008350

> <SMILES>
COc1ccc(cc1)C(N(Cc1ccco1)C(=O)Cn1nnc2ccccc12)C(=O)NC1CCCCC1

$$$$

  CDD

  0  0  0  0  0  0            999 V2000
M  END
> <Molecule Name>
CVD-0008349

> <SMILES>
CN1CCN(CC1)NC(=S)Nc1cccc(C)c1C

$$$$

  CDD

  0  0  0  0  0  0            999 V2000
M  END
> <Molecule Name>
CVD-0008348

> <SMILES>
CCOc1ccc(cc1)N(CC(=O)Nc1ccc(C)c(C)c1)S(=O)(=O)c1c(C)[nH]c(=O)[nH]c1=O

$$$$

  CDD

  0  0  0  0  0  0            999 V2000
M  END
> <Molecule Name>
CVD-0008347

> <SMILES>
CC(C)(C)NC(=O)C(N(C(=O)Cn1nnc2ccccc12)c1ccccc1)c1ccc(O)cc1

$$$$

  CDD

  0  0  0  0  0  0            999 V2000
M  END
> <Molecule Name>
CVD-0008346

> <SMILES>
Cc1ccc(C)c(c1)N1CCN(CC1)C(=O)c1ccc(N2CCCC2)c(c1)[N+]([O-])=O

$$$$

  CDD

  0  0  0  0  0  0            999 V2000
M  END
> <Molecule Name>
CVD-0008345

> <SMILES>
CN(CC(=O)N1CCN(CC1)S(=O)(=O)c1ccc(C)cc1)S(=O)(=O)c1ccc2OCCOc2c1

$$$$

  CDD

  0  0  0  0  0  0            999 V2000
M  END
> <Molecule Name>
CVD-0008344

> <SMILES>
CCOc1ccc(cc1)N(CC(=O)Nc1ccc(C)cc1)S(=O)(=O)c1c(C)[nH]c(=O)[nH]c1=O

$$$$

  CDD

  0  0  0  0  0  0            999 V2000
M  END
> <Molecule Name>
CVD-0008343

> <SMILES>
Cc1ccc2n(CC(O)CN3CCN(CC3)c3ccccc3F)c3CCCCc3c2c1

$$$$

  CDD

  0  0  0  0  0  0            999 V2000
M  END
> <Molecule Name>
CVD-0008342

> <SMILES>
CC(C)(C)NC(=O)C(N(Cc1ccco1)C(=O)Cn1nnc2ccccc12)c1ccc(O)cc1

$$$$

  CDD

  0  0  0  0  0  0            999 V2000
M  END
> <Molecule Name>
CVD-0008341

> <SMILES>
FC(F)(F)c1cccc(NS(=O)(=O)c2cccc(c2)C(=O)N\N=C\c2ccco2)c1

$$$$

  CDD

  0  0  0  0  0  0            999 V2000
M  END
> <Molecule Name>
CVD-0008340

> <SMILES>
OC(=O)c1c(C=O)c2ccccc2n1CCCN1CCOCC1

$$$$

  CDD

  0  0  0  0  0  0            999 V2000
M  END
> <Molecule Name>
CVD-0008339

> <SMILES>
COc1ccc(cc1)N1CCN(CC1)C(=O)CCS(=O)(=O)c1ccc2SC(C)C(=O)Nc2c1

$$$$

  CDD

  0  0  0  0  0  0            999 V2000
M  END
> <Molecule Name>
CVD-0008338

> <SMILES>
CCCCCCn1c(CN2CCN(CC2)c2ccccc2OC)nc2n(C)c(=O)[nH]c(=O)c12

$$$$

  CDD

  0  0  0  0  0  0            999 V2000
M  END
> <Molecule Name>
CVD-0008337

> <SMILES>
OC(=O)c1ccccc1C(=O)\N=c1/sccn1Cc1ccc(Cl)cc1Cl

$$$$

  CDD

  0  0  0  0  0  0            999 V2000
M  END
> <Molecule Name>
CVD-0008336

> <SMILES>
CC(C)CC(=O)NC(c1ccc(Cl)cc1)c1c(O)ccc2ccccc12

$$$$

  CDD

  0  0  0  0  0  0            999 V2000
M  END
> <Molecule Name>
CVD-0008335

> <SMILES>
COc1ccc(cc1)C(N(C(=O)Cn1nnc2ccccc12)c1cccc(c1)C(F)(F)F)C(=O)NCc1ccccc1

$$$$

  CDD

  0  0  0  0  0  0            999 V2000
M  END
> <Molecule Name>
CVD-0008334

> <SMILES>
CCCCn1c(CN2CCN(CC2)C(=O)c2ccco2)nc2n(C)c(=O)[nH]c(=O)c12

$$$$

  CDD

  0  0  0  0  0  0            999 V2000
M  END
> <Molecule Name>
CVD-0008333

> <SMILES>
COc1ccc(CNC(=O)C(N(C(=O)Cn2nnc3ccccc23)c2cccnc2)c2ccccc2F)cc1

$$$$

  CDD

  0  0  0  0  0  0            999 V2000
M  END
> <Molecule Name>
CVD-0008332

> <SMILES>
CC1Sc2ccc(cc2NC1=O)S(=O)(=O)N1CCN(CC1)c1cc(C)ccc1C

$$$$

  CDD

  0  0  0  0  0  0            999 V2000
M  END
> <Molecule Name>
CVD-0008331

> <SMILES>
Fc1ccc(OCC(=O)Nc2ccc3C(=O)NC(=O)c3c2)cc1

$$$$

  CDD

  0  0  0  0  0  0            999 V2000
M  END
> <Molecule Name>
CVD-0008330

> <SMILES>
Cc1ccc(C(=O)Nc2ccc(cc2)S(=O)(=O)Nc2cnc3ccccc3n2)c(C)c1

$$$$

  CDD

  0  0  0  0  0  0            999 V2000
M  END
> <Molecule Name>
CVD-0008329

> <SMILES>
CC(C)CC(=O)NC(c1ccco1)c1c(O)ccc2ccccc12

$$$$

  CDD

  0  0  0  0  0  0            999 V2000
M  END
> <Molecule Name>
CVD-0008328

> <SMILES>
CN(Cc1ccc(F)cc1)S(=O)(=O)c1nnc(NC(=O)c2ccccc2)s1

$$$$

  CDD

  0  0  0  0  0  0            999 V2000
M  END
> <Molecule Name>
CVD-0008327

> <SMILES>
CC(=O)Nc1ccc(cc1)N(C(C(=O)NC1CCCC1)c1ccc(C)o1)C(=O)Cn1nnc2ccccc12

$$$$

  CDD

  0  0  0  0  0  0            999 V2000
M  END
> <Molecule Name>
CVD-0008326

> <SMILES>
COCCNC(=O)C(N(Cc1ccco1)C(=O)Cn1nnc2ccccc12)c1ccc(C)cc1

$$$$

  CDD

  0  0  0  0  0  0            999 V2000
M  END
> <Molecule Name>
CVD-0008325

> <SMILES>
CNC(C)C(=O)NC(C(C)C)C(=O)NC(CC(C)C)C(=O)NC(CC1CCNC1=O)C(=O)c1nc2ccccc2s1

$$$$

  CDD

  0  0  0  0  0  0            999 V2000
M  END
> <Molecule Name>
CVD-0008324

> <SMILES>
CC(C)CNC(=O)NC(CC(C)C)C(=O)NC(CC1CCNC1=O)C(=O)c1nc2ccccc2s1

$$$$

  CDD

  0  0  0  0  0  0            999 V2000
M  END
> <Molecule Name>
CVD-0008323

> <SMILES>
OCC1OC2[S-][Au+]OC2C(O)C1O

$$$$

  CDD

  0  0  0  0  0  0            999 V2000
M  END
> <Molecule Name>
CVD-0008322

> <SMILES>
Cc1ncc(NC(=O)C2(F)CCOc3ccc(Cl)cc23)n1C1CC1

$$$$

  CDD

  0  0  0  0  0  0            999 V2000
M  END
> <Molecule Name>
CVD-0008321

> <SMILES>
Fc1c(Cl)ccc2OCCC(C(=O)Nc3cncn3C3CC3)c12

$$$$

  CDD

  0  0  0  0  0  0            999 V2000
M  END
> <Molecule Name>
CVD-0008320

> <SMILES>
FC1(CCOc2ccc(Cl)cc12)C(=O)Nc1cncn1C1CC1

$$$$

  CDD

  0  0  0  0  0  0            999 V2000
M  END
> <Molecule Name>
CVD-0008319

> <SMILES>
Fc1c(Cl)ccc2OCCC(C(=O)Nc3nncn3C3CC3)c12

$$$$

  CDD

  0  0  0  0  0  0            999 V2000
M  END
> <Molecule Name>
CVD-0008318

> <SMILES>
F[C@]1(CCOc2ccc(Cl)cc12)C(=O)Nc1nncn1C1CC1

$$$$

  CDD

  0  0  0  0  0  0            999 V2000
M  END
> <Molecule Name>
CVD-0008317

> <SMILES>
Clc1ccc2C(=O)NCC(C(=O)Nc3nncn3C3CC3)c2c1

$$$$

  CDD

  0  0  0  0  0  0            999 V2000
M  END
> <Molecule Name>
CVD-0008316

> <SMILES>
CN1CC(C(=O)Nc2nncn2C2CC2)c2cc(Cl)ccc2C1=O

$$$$

  CDD

  0  0  0  0  0  0            999 V2000
M  END
> <Molecule Name>
CVD-0008315

> <SMILES>
Clc1ccc2CCCC(C(=O)Nc3nncn3C3CC3)c2c1

$$$$

  CDD

  0  0  0  0  0  0            999 V2000
M  END
> <Molecule Name>
CVD-0008314

> <SMILES>
COc1ccc(cc1)N(C(=O)Nc1cccc(c1)C(C)(C)C#N)c1cccnc1

$$$$

  CDD

  0  0  0  0  0  0            999 V2000
M  END
> <Molecule Name>
CVD-0008313

> <SMILES>
CC(C)(C)OC(=O)N(C(=O)Nc1cccc(c1)C(C)(C)C#N)c1cccnc1

$$$$

  CDD

  0  0  0  0  0  0            999 V2000
M  END
> <Molecule Name>
CVD-0008312

> <SMILES>
CC(C)(C)OC(=O)N(C(=O)Nc1ccc(CCNC(N)=N)cc1)c1cccnc1

$$$$

  CDD

  0  0  0  0  0  0            999 V2000
M  END
> <Molecule Name>
CVD-0008311

> <SMILES>
CC(C)(C)OC(=O)N(C(=O)Nc1ccc(CC(=O)NC(N)=O)cc1)c1cccnc1

$$$$

  CDD

  0  0  0  0  0  0            999 V2000
M  END
> <Molecule Name>
CVD-0008310

> <SMILES>
CC(C)(C)OC(=O)N(C(=O)Nc1ccc(CC(=O)NC(N)=O)c(c1)C(C)(C)C#N)c1cccnc1

$$$$

  CDD

  0  0  0  0  0  0            999 V2000
M  END
> <Molecule Name>
CVD-0008309

> <SMILES>
CC(C)(C)OC(=O)N(C(=O)N(c1ccccc1)c1ccc(F)cc1)c1cccnc1

$$$$

  CDD

  0  0  0  0  0  0            999 V2000
M  END
> <Molecule Name>
CVD-0008308

> <SMILES>
CC(C)(C#N)c1cccc(c1)N(C(=O)Nc1cccnc1)c1ccc(F)cc1

$$$$

  CDD

  0  0  0  0  0  0            999 V2000
M  END
> <Molecule Name>
CVD-0008307

> <SMILES>
CC(C)(C#N)c1cc(NC(=O)Nc2cccnc2)ccc1CC(=O)NC(N)=O

$$$$

  CDD

  0  0  0  0  0  0            999 V2000
M  END
> <Molecule Name>
CVD-0008306

> <SMILES>
CC(C)(C#N)c1cc(CC(=O)NC(N)=O)cc(NC(=O)Nc2cccnc2)c1

$$$$

  CDD

  0  0  0  0  0  0            999 V2000
M  END
> <Molecule Name>
CVD-0008305

> <SMILES>
OC1CCCN(Cc2cccc(NC(=O)Nc3cccnc3)c2)C1

$$$$

  CDD

  0  0  0  0  0  0            999 V2000
M  END
> <Molecule Name>
CVD-0008304

> <SMILES>
NC1=SC(Cc2cccc(NC(=O)Nc3cccnc3)c2)C(=O)N1

$$$$

  CDD

  0  0  0  0  0  0            999 V2000
M  END
> <Molecule Name>
CVD-0008303

> <SMILES>
NC(=O)NC(=O)Cc1cccc(NC(=O)Nc2cccnc2)c1

$$$$

  CDD

  0  0  0  0  0  0            999 V2000
M  END
> <Molecule Name>
CVD-0008302

> <SMILES>
NC1=NC(Cc2cccc(NC(=O)Nc3cccnc3)c2)C(=O)N1

$$$$

  CDD

  0  0  0  0  0  0            999 V2000
M  END
> <Molecule Name>
CVD-0008301

> <SMILES>
Oc1ccccc1Cc1cccc(NC(=O)Nc2cccnc2)c1

$$$$

  CDD

  0  0  0  0  0  0            999 V2000
M  END
> <Molecule Name>
CVD-0008300

> <SMILES>
CC1CCC(Cc2cccc(NC(=O)Nc3cccnc3)c2)=CC1

$$$$

  CDD

  0  0  0  0  0  0            999 V2000
M  END
> <Molecule Name>
CVD-0008299

> <SMILES>
OCCC(O)CCc1cccc(NC(=O)Nc2cccnc2)c1

$$$$

  CDD

  0  0  0  0  0  0            999 V2000
M  END
> <Molecule Name>
CVD-0008298

> <SMILES>
NC1NCC(O1)c1cccc(NC(=O)Nc2cccnc2)c1

$$$$

  CDD

  0  0  0  0  0  0            999 V2000
M  END
> <Molecule Name>
CVD-0008297

> <SMILES>
COC(C)(C)c1cccc(NC(=O)Nc2cccnc2)c1

$$$$

  CDD

  0  0  0  0  0  0            999 V2000
M  END
> <Molecule Name>
CVD-0008296

> <SMILES>
CC(C)(C)c1cccc(NC(=O)Nc2cccnc2)c1

$$$$

  CDD

  0  0  0  0  0  0            999 V2000
M  END
> <Molecule Name>
CVD-0008295

> <SMILES>
O=C(Nc1cccnc1)Nc1cccc(c1)C1OC(=O)C=C1

$$$$

  CDD

  0  0  0  0  0  0            999 V2000
M  END
> <Molecule Name>
CVD-0008294

> <SMILES>
CC(C)(C#N)c1cccc(NC(=O)Nc2cccnc2)c1

$$$$

  CDD

  0  0  0  0  0  0            999 V2000
M  END
> <Molecule Name>
CVD-0008293

> <SMILES>
Nn1c(Cc2ccc(NC(=O)Nc3cccnc3)cc2)n[nH]c1=O

$$$$

  CDD

  0  0  0  0  0  0            999 V2000
M  END
> <Molecule Name>
CVD-0008292

> <SMILES>
O=C(Nc1ccc(CNC(=O)C2CCC2)cc1)Nc1cccnc1

$$$$

  CDD

  0  0  0  0  0  0            999 V2000
M  END
> <Molecule Name>
CVD-0008291

> <SMILES>
FCc1cn(Cc2ccc(NC(=O)Nc3cccnc3)cc2)nn1

$$$$

  CDD

  0  0  0  0  0  0            999 V2000
M  END
> <Molecule Name>
CVD-0008290

> <SMILES>
NC(=O)NC(=O)Cc1ccc(NC(=O)Nc2cccnc2)cc1

$$$$

  CDD

  0  0  0  0  0  0            999 V2000
M  END
> <Molecule Name>
CVD-0008289

> <SMILES>
NC(=N)NCCc1ccc(NC(=O)Nc2cccnc2)cc1

$$$$

  CDD

  0  0  0  0  0  0            999 V2000
M  END
> <Molecule Name>
CVD-0008288

> <SMILES>
Brc1cccc(Oc2ccncc2NC(=O)Nc2ccccc2)c1

$$$$

  CDD

  0  0  0  0  0  0            999 V2000
M  END
> <Molecule Name>
CVD-0008287

> <SMILES>
FC(F)(F)C(=O)Nc1ccncc1NC(=O)Nc1ccccc1

$$$$

  CDD

  0  0  0  0  0  0            999 V2000
M  END
> <Molecule Name>
CVD-0008286

> <SMILES>
O=C(Nc1ccccc1)Nc1cnccc1Cc1ccccc1

$$$$

  CDD

  0  0  0  0  0  0            999 V2000
M  END
> <Molecule Name>
CVD-0008285

> <SMILES>
CNC(=O)Nc1ccncc1NC(=O)Nc1ccccc1

$$$$

  CDD

  0  0  0  0  0  0            999 V2000
M  END
> <Molecule Name>
CVD-0008284

> <SMILES>
Clc1ccc(Sc2ccncc2NC(=O)Nc2ccccc2)cc1

$$$$

  CDD

  0  0  0  0  0  0            999 V2000
M  END
> <Molecule Name>
CVD-0008283

> <SMILES>
O=C(Nc1ccccc1)N(Cc1ccccc1)c1cccnc1

$$$$

  CDD

  0  0  0  0  0  0            999 V2000
M  END
> <Molecule Name>
CVD-0008282

> <SMILES>
Fc1ccc(cc1)N(C(=O)Nc1ccccc1)c1cccnc1

$$$$

  CDD

  0  0  0  0  0  0            999 V2000
M  END
> <Molecule Name>
CVD-0008281

> <SMILES>
O=C(Nc1ccccc1)N(c1ccccc1)c1cccnc1

$$$$

  CDD

  0  0  0  0  0  0            999 V2000
M  END
> <Molecule Name>
CVD-0008280

> <SMILES>
COc1ccc(cc1)N(C(=O)Nc1ccccc1)c1cccnc1

$$$$

  CDD

  0  0  0  0  0  0            999 V2000
M  END
> <Molecule Name>
CVD-0008279

> <SMILES>
CC(C)(C)OC(=O)N(C(=O)Nc1cccnc1)c1ccccc1

$$$$

  CDD

  0  0  0  0  0  0            999 V2000
M  END
> <Molecule Name>
CVD-0008278

> <SMILES>
O=C(Nc1cccnc1)N(Cc1ccccc1)c1ccccc1

$$$$

  CDD

  0  0  0  0  0  0            999 V2000
M  END
> <Molecule Name>
CVD-0008277

> <SMILES>
O=C(Nc1cccnc1)N(c1ccccc1)c1ccccc1

$$$$

  CDD

  0  0  0  0  0  0            999 V2000
M  END
> <Molecule Name>
CVD-0008276

> <SMILES>
Fc1ccc(cc1)N(C(=O)Nc1cccnc1)c1ccccc1

$$$$

  CDD

  0  0  0  0  0  0            999 V2000
M  END
> <Molecule Name>
CVD-0008275

> <SMILES>
C[C@H]1C[C@H](C(=O)Nc2nncn2C2CC2)c2cc(Cl)ccc2O1

$$$$

  CDD

  0  0  0  0  0  0            999 V2000
M  END
> <Molecule Name>
CVD-0008274

> <SMILES>
Cc1c(Cl)ccc2OCCC(C(=O)Nc3nncn3C3CC3)c12

$$$$

  CDD

  0  0  0  0  0  0            999 V2000
M  END
> <Molecule Name>
CVD-0008273

> <SMILES>
Clc1ccc2OCCC(C(=O)Nc3nncn3C3CC3)c2c1Cl

$$$$

  CDD

  0  0  0  0  0  0            999 V2000
M  END
> <Molecule Name>
CVD-0008272

> <SMILES>
COCCn1cc(CC(=O)NC(C)C)c2cccnc12

$$$$

  CDD

  0  0  0  0  0  0            999 V2000
M  END
> <Molecule Name>
CVD-0008271

> <SMILES>
Clc1ccccc1CNC(=O)C1CCN(CCc2c[nH]c3ncccc23)CC1

$$$$

  CDD

  0  0  0  0  0  0            999 V2000
M  END
> <Molecule Name>
CVD-0008270

> <SMILES>
CCC(=O)NCCc1cn(CCOC)c2ncccc12

$$$$

  CDD

  0  0  0  0  0  0            999 V2000
M  END
> <Molecule Name>
CVD-0008269

> <SMILES>
CCCn1cc(CCNC(=O)C2CCCO2)c2cccnc12

$$$$

  CDD

  0  0  0  0  0  0            999 V2000
M  END
> <Molecule Name>
CVD-0008268

> <SMILES>
CCCn1cc(CCNS(=O)(=O)c2c[nH]cn2)c2cccnc12

$$$$

  CDD

  0  0  0  0  0  0            999 V2000
M  END
> <Molecule Name>
CVD-0008267

> <SMILES>
COc1ccc(CNC(=O)Cn2ccc3ccc(nc23)N2CCOCC2)c(OC)c1

$$$$

  CDD

  0  0  0  0  0  0            999 V2000
M  END
> <Molecule Name>
CVD-0008266

> <SMILES>
COCCn1cc(CCNC(=O)C(C)C)c2cccnc12

$$$$

  CDD

  0  0  0  0  0  0            999 V2000
M  END
> <Molecule Name>
CVD-0008265

> <SMILES>
CCNCC1CCN(CC1)S(=O)(=O)c1c[nH]c2ncccc12

$$$$

  CDD

  0  0  0  0  0  0            999 V2000
M  END
> <Molecule Name>
CVD-0008264

> <SMILES>
CC1C(CCCN1S(=O)(=O)c1c[nH]c2nccc(Cl)c12)C(O)=O

$$$$

  CDD

  0  0  0  0  0  0            999 V2000
M  END
> <Molecule Name>
CVD-0008263

> <SMILES>
COc1ccc(NS(=O)(=O)c2c[nH]c3ncccc23)cc1

$$$$

  CDD

  0  0  0  0  0  0            999 V2000
M  END
> <Molecule Name>
CVD-0008262

> <SMILES>
OC(=O)C1CN(CCO1)C(=O)Cc1c[nH]c2ncccc12

$$$$

  CDD

  0  0  0  0  0  0            999 V2000
M  END
> <Molecule Name>
CVD-0008261

> <SMILES>
CC1(C)CN(CCC1N)S(=O)(=O)c1c[nH]c2ncccc12

$$$$

  CDD

  0  0  0  0  0  0            999 V2000
M  END
> <Molecule Name>
CVD-0008260

> <SMILES>
COc1ccc(CNC(=O)Cn2ccc3ccc(nc23)N2CCOCC2)cc1OC

$$$$

  CDD

  0  0  0  0  0  0            999 V2000
M  END
> <Molecule Name>
CVD-0008259

> <SMILES>
NC1CCN(CC1)S(=O)(=O)c1c[nH]c2nccc(Cl)c12

$$$$

  CDD

  0  0  0  0  0  0            999 V2000
M  END
> <Molecule Name>
CVD-0008258

> <SMILES>
O=S(=O)(N1CCC2CCC(C1)N2)c1c[nH]c2ncccc12

$$$$

  CDD

  0  0  0  0  0  0            999 V2000
M  END
> <Molecule Name>
CVD-0008257

> <SMILES>
COCCn1cc(CC(=O)Nc2cccc(C)c2)c2cccnc12

$$$$

  CDD

  0  0  0  0  0  0            999 V2000
M  END
> <Molecule Name>
CVD-0008256

> <SMILES>
CC(C)NC(=O)C1CCN(CCc2c[nH]c3ncccc23)CC1

$$$$

  CDD

  0  0  0  0  0  0            999 V2000
M  END
> <Molecule Name>
CVD-0008255

> <SMILES>
Oc1cc(C#N)c2cc[nH]c2n1

$$$$

  CDD

  0  0  0  0  0  0            999 V2000
M  END
> <Molecule Name>
CVD-0008254

> <SMILES>
COc1cccc(CNC(=O)Cn2ccc3ccc(nc23)N2CCOCC2)c1

$$$$

  CDD

  0  0  0  0  0  0            999 V2000
M  END
> <Molecule Name>
CVD-0008253

> <SMILES>
O=C(CC1CCCN1)N1CCN(CC1)S(=O)(=O)c1c[nH]c2ncccc12

$$$$

  CDD

  0  0  0  0  0  0            999 V2000
M  END
> <Molecule Name>
CVD-0008252

> <SMILES>
OC(=O)C1CCCN(C1)S(=O)(=O)c1c[nH]c2nccc(Cl)c12

$$$$

  CDD

  0  0  0  0  0  0            999 V2000
M  END
> <Molecule Name>
CVD-0008251

> <SMILES>
NC1CCN(C1)S(=O)(=O)c1c[nH]c2nccc(Cl)c12

$$$$

  CDD

  0  0  0  0  0  0            999 V2000
M  END
> <Molecule Name>
CVD-0008250

> <SMILES>
O=S(=O)(N1CCC(CC1)NCC1CC1)c1c[nH]c2ncccc12

$$$$

  CDD

  0  0  0  0  0  0            999 V2000
M  END
> <Molecule Name>
CVD-0008249

> <SMILES>
Clc1ccnc2[nH]cc(c12)S(=O)(=O)NC1CC2CCC(C1)N2

$$$$

  CDD

  0  0  0  0  0  0            999 V2000
M  END
> <Molecule Name>
CVD-0008248

> <SMILES>
OC(=O)C1(CCOC1)NC(=O)Cc1c[nH]c2ncccc12

$$$$

  CDD

  0  0  0  0  0  0            999 V2000
M  END
> <Molecule Name>
CVD-0008247

> <SMILES>
O=C(NCc1cccs1)C1CCN(CCc2c[nH]c3ncccc23)CC1

$$$$

  CDD

  0  0  0  0  0  0            999 V2000
M  END
> <Molecule Name>
CVD-0008246

> <SMILES>
CC1CN(CC1C(O)=O)S(=O)(=O)c1c[nH]c2ncccc12

$$$$

  CDD

  0  0  0  0  0  0            999 V2000
M  END
> <Molecule Name>
CVD-0008245

> <SMILES>
COCCn1cc(CC(=O)NC2CCCC2)c2cccnc12

$$$$

  CDD

  0  0  0  0  0  0            999 V2000
M  END
> <Molecule Name>
CVD-0008244

> <SMILES>
OC1CNCC1CNC(=O)c1c[nH]c2ncccc12

$$$$

  CDD

  0  0  0  0  0  0            999 V2000
M  END
> <Molecule Name>
CVD-0008243

> <SMILES>
Cc1ccc(CNC(=O)Cn2ccc3ccc(nc23)N2CCOCC2)o1

$$$$

  CDD

  0  0  0  0  0  0            999 V2000
M  END
> <Molecule Name>
CVD-0008242

> <SMILES>
NCCNC(=O)C1CCCN(C1)C(=O)Cc1c[nH]c2ncccc12

$$$$

  CDD

  0  0  0  0  0  0            999 V2000
M  END
> <Molecule Name>
CVD-0008241

> <SMILES>
COCC(N)C(=O)N1CCC(CC1)c1c[nH]c2ncccc12

$$$$

  CDD

  0  0  0  0  0  0            999 V2000
M  END
> <Molecule Name>
CVD-0008240

> <SMILES>
COCCn1cc(CCNC(=O)c2ccccc2F)c2cccnc12

$$$$

  CDD

  0  0  0  0  0  0            999 V2000
M  END
> <Molecule Name>
CVD-0008239

> <SMILES>
CC(C)(C)C(N)C(=O)N1CCN(CC1)S(=O)(=O)c1c[nH]c2ncccc12

$$$$

  CDD

  0  0  0  0  0  0            999 V2000
M  END
> <Molecule Name>
CVD-0008238

> <SMILES>
OC(=O)CC1COCCN1C(=O)Cc1c[nH]c2ncccc12

$$$$

  CDD

  0  0  0  0  0  0            999 V2000
M  END
> <Molecule Name>
CVD-0008237

> <SMILES>
NC1(CC1)C(=O)N1CCN(CC1)S(=O)(=O)c1c[nH]c2ncccc12

$$$$

  CDD

  0  0  0  0  0  0            999 V2000
M  END
> <Molecule Name>
CVD-0008236

> <SMILES>
COCCn1cc(CCNC(=O)Nc2ccc(F)c(Cl)c2)c2cccnc12

$$$$

  CDD

  0  0  0  0  0  0            999 V2000
M  END
> <Molecule Name>
CVD-0008235

> <SMILES>
CNCC1CCCN(C1)S(=O)(=O)c1c[nH]c2nccc(Cl)c12

$$$$

  CDD

  0  0  0  0  0  0            999 V2000
M  END
> <Molecule Name>
CVD-0008234

> <SMILES>
CC(N)C1CCCN(C1)S(=O)(=O)c1c[nH]c2nccc(Cl)c12

$$$$

  CDD

  0  0  0  0  0  0            999 V2000
M  END
> <Molecule Name>
CVD-0008233

> <SMILES>
O=C(C1CCNCC1)N1CCN(CC1)S(=O)(=O)c1c[nH]c2ncccc12

$$$$

  CDD

  0  0  0  0  0  0            999 V2000
M  END
> <Molecule Name>
CVD-0008232

> <SMILES>
Clc1ccnc2[nH]cc(c12)S(=O)(=O)N1CCNCC1

$$$$

  CDD

  0  0  0  0  0  0            999 V2000
M  END
> <Molecule Name>
CVD-0008231

> <SMILES>
COCCn1cc(CC(=O)Nc2cccc(SC)c2)c2cccnc12

$$$$

  CDD

  0  0  0  0  0  0            999 V2000
M  END
> <Molecule Name>
CVD-0008230

> <SMILES>
CC(O)(CNC(=O)c1c[nH]c2ncccc12)C(O)=O

$$$$

  CDD

  0  0  0  0  0  0            999 V2000
M  END
> <Molecule Name>
CVD-0008229

> <SMILES>
COc1ccc(NS(=O)(=O)c2cn(CC(C)C)c3ncccc23)cc1F

$$$$

  CDD

  0  0  0  0  0  0            999 V2000
M  END
> <Molecule Name>
CVD-0008228

> <SMILES>
O=S(=O)(N1CCC2CNCC2C1)c1c[nH]c2ncccc12

$$$$

  CDD

  0  0  0  0  0  0            999 V2000
M  END
> <Molecule Name>
CVD-0008227

> <SMILES>
COCCn1cc(CCNC(=O)Nc2cccc(F)c2C)c2cccnc12

$$$$

  CDD

  0  0  0  0  0  0            999 V2000
M  END
> <Molecule Name>
CVD-0008226

> <SMILES>
OC(=O)C1CCN(C1)S(=O)(=O)c1c[nH]c2nccc(Cl)c12

$$$$

  CDD

  0  0  0  0  0  0            999 V2000
M  END
> <Molecule Name>
CVD-0008225

> <SMILES>
Cn1cc(CCNC(=O)Cc2cccc(F)c2)c2cccnc12

$$$$

  CDD

  0  0  0  0  0  0            999 V2000
M  END
> <Molecule Name>
CVD-0008224

> <SMILES>
COc1ccccc1CNC(=O)Cn1ccc2ccc(nc12)N1CCOCC1

$$$$

  CDD

  0  0  0  0  0  0            999 V2000
M  END
> <Molecule Name>
CVD-0008223

> <SMILES>
CC1CN(CCN1)S(=O)(=O)c1c[nH]c2nccc(Cl)c12

$$$$

  CDD

  0  0  0  0  0  0            999 V2000
M  END
> <Molecule Name>
CVD-0008222

> <SMILES>
OC(=O)C1CCN(CC1)S(=O)(=O)c1c[nH]c2nccc(Cl)c12

$$$$

  CDD

  0  0  0  0  0  0            999 V2000
M  END
> <Molecule Name>
CVD-0008221

> <SMILES>
COCCn1cc(CC(=O)NC2CCCCC2)c2cccnc12

$$$$

  CDD

  0  0  0  0  0  0            999 V2000
M  END
> <Molecule Name>
CVD-0008220

> <SMILES>
CC1(C)CN(CCC1N)S(=O)(=O)c1c[nH]c2nccc(Cl)c12

$$$$

  CDD

  0  0  0  0  0  0            999 V2000
M  END
> <Molecule Name>
CVD-0008219

> <SMILES>
CCc1cccc(NC(=O)Cc2cn(CCOC)c3ncccc23)c1

$$$$

  CDD

  0  0  0  0  0  0            999 V2000
M  END
> <Molecule Name>
CVD-0008218

> <SMILES>
COCCn1cc(CC(=O)Nc2cc(Cl)ccc2C)c2cccnc12

$$$$

  CDD

  0  0  0  0  0  0            999 V2000
M  END
> <Molecule Name>
CVD-0008217

> <SMILES>
O=C(CCC1CCNC1)N1CCN(CC1)S(=O)(=O)c1c[nH]c2ncccc12

$$$$

  CDD

  0  0  0  0  0  0            999 V2000
M  END
> <Molecule Name>
CVD-0008216

> <SMILES>
Fc1ccccc1CNC(=O)C1CCN(CCc2c[nH]c3ncccc23)CC1

$$$$

  CDD

  0  0  0  0  0  0            999 V2000
M  END
> <Molecule Name>
CVD-0008215

> <SMILES>
NCCC(=O)N1CCN(CC1)S(=O)(=O)c1c[nH]c2ncccc12

$$$$

  CDD

  0  0  0  0  0  0            999 V2000
M  END
> <Molecule Name>
CVD-0008214

> <SMILES>
NCCCC(=O)N1CCN(CC1)S(=O)(=O)c1c[nH]c2ncccc12

$$$$

  CDD

  0  0  0  0  0  0            999 V2000
M  END
> <Molecule Name>
CVD-0008213

> <SMILES>
OC(=O)C1(CNC(=O)Cc2c[nH]c3ncccc23)CCCCC1

$$$$

  CDD

  0  0  0  0  0  0            999 V2000
M  END
> <Molecule Name>
CVD-0008212

> <SMILES>
CC1CN(CC(O1)C(O)=O)C(=O)Cc1c[nH]c2ncccc12

$$$$

  CDD

  0  0  0  0  0  0            999 V2000
M  END
> <Molecule Name>
CVD-0008211

> <SMILES>
CC(N)C1CCN(CC1)S(=O)(=O)c1c[nH]c2nccc(Cl)c12

$$$$

  CDD

  0  0  0  0  0  0            999 V2000
M  END
> <Molecule Name>
CVD-0008210

> <SMILES>
COCCn1cc(CCNC(=O)c2cncc(Br)c2)c2cccnc12

$$$$

  CDD

  0  0  0  0  0  0            999 V2000
M  END
> <Molecule Name>
CVD-0008209

> <SMILES>
CC1C(CCCN1C(=O)Cc1c[nH]c2ncccc12)C(O)=O

$$$$

  CDD

  0  0  0  0  0  0            999 V2000
M  END
> <Molecule Name>
CVD-0008208

> <SMILES>
CC(N)C(=O)N1CCN(CC1)S(=O)(=O)c1c[nH]c2ncccc12

$$$$

  CDD

  0  0  0  0  0  0            999 V2000
M  END
> <Molecule Name>
CVD-0008207

> <SMILES>
CNCCCC(=O)N1CCN(CC1)S(=O)(=O)c1c[nH]c2ncccc12

$$$$

  CDD

  0  0  0  0  0  0            999 V2000
M  END
> <Molecule Name>
CVD-0008206

> <SMILES>
COCCn1cc(CCNC(=O)c2ccnn2C)c2cccnc12

$$$$

  CDD

  0  0  0  0  0  0            999 V2000
M  END
> <Molecule Name>
CVD-0008205

> <SMILES>
COc1cc(NC(=O)Cc2c[nH]c3ncccc23)cc(OC)c1

$$$$

  CDD

  0  0  0  0  0  0            999 V2000
M  END
> <Molecule Name>
CVD-0008204

> <SMILES>
CC1CC(CCN1)C(=O)N1CCN(CC1)S(=O)(=O)c1c[nH]c2ncccc12

$$$$

  CDD

  0  0  0  0  0  0            999 V2000
M  END
> <Molecule Name>
CVD-0008203

> <SMILES>
O=S(=O)(N1CCN(CC1)C1CCNC1)c1c[nH]c2ncccc12

$$$$

  CDD

  0  0  0  0  0  0            999 V2000
M  END
> <Molecule Name>
CVD-0008202

> <SMILES>
COCCn1cc(CCNC(=O)Nc2cc(Cl)cc(Cl)c2)c2cccnc12

$$$$

  CDD

  0  0  0  0  0  0            999 V2000
M  END
> <Molecule Name>
CVD-0008201

> <SMILES>
Clc1ccnc2[nH]cc(c12)S(=O)(=O)N1CCC(C1)N1CCNCC1

$$$$

  CDD

  0  0  0  0  0  0            999 V2000
M  END
> <Molecule Name>
CVD-0008200

> <SMILES>
O=C(Cn1ccc2ccc(nc12)N1CCOCC1)NCc1ccco1

$$$$

  CDD

  0  0  0  0  0  0            999 V2000
M  END
> <Molecule Name>
CVD-0008199

> <SMILES>
COCCn1cc(CCNC(=O)c2ccncc2)c2cccnc12

$$$$

  CDD

  0  0  0  0  0  0            999 V2000
M  END
> <Molecule Name>
CVD-0008198

> <SMILES>
NCCCOC1CCN(CC1)S(=O)(=O)c1c[nH]c2nccc(Cl)c12

$$$$

  CDD

  0  0  0  0  0  0            999 V2000
M  END
> <Molecule Name>
CVD-0008197

> <SMILES>
COCCn1cc(CCNC(=O)c2cccc(Cl)c2)c2cccnc12

$$$$

  CDD

  0  0  0  0  0  0            999 V2000
M  END
> <Molecule Name>
CVD-0008196

> <SMILES>
CC(NC(=O)C1CCN(CCc2c[nH]c3ncccc23)CC1)c1ccccc1

$$$$

  CDD

  0  0  0  0  0  0            999 V2000
M  END
> <Molecule Name>
CVD-0008195

> <SMILES>
OC(=O)CCCNS(=O)(=O)c1c[nH]c2nccc(Cl)c12

$$$$

  CDD

  0  0  0  0  0  0            999 V2000
M  END
> <Molecule Name>
CVD-0008194

> <SMILES>
COCCn1cc(CC(=O)NC(C)c2ccccn2)c2cccnc12

$$$$

  CDD

  0  0  0  0  0  0            999 V2000
M  END
> <Molecule Name>
CVD-0008193

> <SMILES>
Fc1cccc(CNC(=O)C2CCN(CCc3c[nH]c4ncccc34)CC2)c1

$$$$

  CDD

  0  0  0  0  0  0            999 V2000
M  END
> <Molecule Name>
CVD-0008192

> <SMILES>
O=C(CN1CCC(CC1)c1c[nH]c2ncccc12)NCc1ccccn1

$$$$

  CDD

  0  0  0  0  0  0            999 V2000
M  END
> <Molecule Name>
CVD-0008191

> <SMILES>
CNCCC(=O)N1CCN(CC1)S(=O)(=O)c1c[nH]c2ncccc12

$$$$

  CDD

  0  0  0  0  0  0            999 V2000
M  END
> <Molecule Name>
CVD-0008190

> <SMILES>
COCCn1cc(CC(=O)Nc2ccc(F)cc2)c2cccnc12

$$$$

  CDD

  0  0  0  0  0  0            999 V2000
M  END
> <Molecule Name>
CVD-0008189

> <SMILES>
CC(C)NC(=O)Cn1ccc2ccc(nc12)N1CCOCC1

$$$$

  CDD

  0  0  0  0  0  0            999 V2000
M  END
> <Molecule Name>
CVD-0008188

> <SMILES>
O=C(Cc1c[nH]c2ncccc12)N1CCCC(C1)N1CCNCC1=O

$$$$

  CDD

  0  0  0  0  0  0            999 V2000
M  END
> <Molecule Name>
CVD-0008187

> <SMILES>
COCCn1cc(CCNC(=O)Nc2ccc(F)cc2F)c2cccnc12

$$$$

  CDD

  0  0  0  0  0  0            999 V2000
M  END
> <Molecule Name>
CVD-0008186

> <SMILES>
COCCn1cc(CC(=O)NCc2ccccc2)c2cccnc12

$$$$

  CDD

  0  0  0  0  0  0            999 V2000
M  END
> <Molecule Name>
CVD-0008185

> <SMILES>
COCCn1cc(CC(=O)NC(C)(C)C)c2cccnc12

$$$$

  CDD

  0  0  0  0  0  0            999 V2000
M  END
> <Molecule Name>
CVD-0008184

> <SMILES>
COCCn1cc(CCNC(=O)Nc2cc(F)c(F)c(F)c2)c2cccnc12

$$$$

  CDD

  0  0  0  0  0  0            999 V2000
M  END
> <Molecule Name>
CVD-0008183

> <SMILES>
CC1CN(CC1C(O)=O)S(=O)(=O)c1c[nH]c2nccc(Cl)c12

$$$$

  CDD

  0  0  0  0  0  0            999 V2000
M  END
> <Molecule Name>
CVD-0008182

> <SMILES>
Clc1ccnc2[nH]cc(c12)S(=O)(=O)N1CCCC(C1)N1CCNCC1=O

$$$$

  CDD

  0  0  0  0  0  0            999 V2000
M  END
> <Molecule Name>
CVD-0008181

> <SMILES>
CC(CC(O)=O)NC(=O)Cc1c[nH]c2ncccc12

$$$$

  CDD

  0  0  0  0  0  0            999 V2000
M  END
> <Molecule Name>
CVD-0008180

> <SMILES>
CCC(CC)(CC(O)=O)NC(=O)Cc1c[nH]c2ncccc12

$$$$

  CDD

  0  0  0  0  0  0            999 V2000
M  END
> <Molecule Name>
CVD-0008179

> <SMILES>
CC1CC(CN(C1)S(=O)(=O)c1c[nH]c2nccc(Cl)c12)C(O)=O

$$$$

  CDD

  0  0  0  0  0  0            999 V2000
M  END
> <Molecule Name>
CVD-0008178

> <SMILES>
CC1CCC(CN1S(=O)(=O)c1c[nH]c2nccc(Cl)c12)C(O)=O

$$$$

  CDD

  0  0  0  0  0  0            999 V2000
M  END
> <Molecule Name>
CVD-0008177

> <SMILES>
COCCn1cc(CC(=O)NCc2ccccc2F)c2cccnc12

$$$$

  CDD

  0  0  0  0  0  0            999 V2000
M  END
> <Molecule Name>
CVD-0008176

> <SMILES>
COCCn1cc(CC(=O)NCc2cccc(C)c2)c2cccnc12

$$$$

  CDD

  0  0  0  0  0  0            999 V2000
M  END
> <Molecule Name>
CVD-0008175

> <SMILES>
COCCn1cc(CCNC(=O)c2cc(F)cc(F)c2)c2cccnc12

$$$$

  CDD

  0  0  0  0  0  0            999 V2000
M  END
> <Molecule Name>
CVD-0008174

> <SMILES>
Cn1ccnc1C1CNCCN1C(=O)Cc1c[nH]c2ncccc12

$$$$

  CDD

  0  0  0  0  0  0            999 V2000
M  END
> <Molecule Name>
CVD-0008173

> <SMILES>
Fc1cc(F)cc(CNC(=O)C2CCN(CCc3c[nH]c4ncccc34)CC2)c1

$$$$

  CDD

  0  0  0  0  0  0            999 V2000
M  END
> <Molecule Name>
CVD-0008172

> <SMILES>
O=C(Nc1nncn1C1CC1)[C@@H]1CCCOc2ccccc12

$$$$

  CDD

  0  0  0  0  0  0            999 V2000
M  END
> <Molecule Name>
CVD-0008171

> <SMILES>
OC1CC(C1)n1cnnc1NC(=O)[C@@H]1CCOc2ccc(Cl)cc12

$$$$

  CDD

  0  0  0  0  0  0            999 V2000
M  END
> <Molecule Name>
CVD-0008170

> <SMILES>
CC1COc2ccc(Cl)cc2C1C(=O)Nc1nncn1C1CC1

$$$$

  CDD

  0  0  0  0  0  0            999 V2000
M  END
> <Molecule Name>
CVD-0008169

> <SMILES>
Clc1ccc2OCC[C@]3(CC(=O)N(C3=O)c3nn[nH]c3C3CC3)c2c1

$$$$

  CDD

  0  0  0  0  0  0            999 V2000
M  END
> <Molecule Name>
CVD-0008168

> <SMILES>
Clc1ccc2OCC[C@]3(CC(=O)N(C3=O)c3cn[nH]c3C3CC3)c2c1

$$$$

  CDD

  0  0  0  0  0  0            999 V2000
M  END
> <Molecule Name>
CVD-0008167

> <SMILES>
Clc1ccc2OCC[C@]3(CC(=O)N(C3=O)c3nncn3C3CC3)c2c1

$$$$

  CDD

  0  0  0  0  0  0            999 V2000
M  END
> <Molecule Name>
CVD-0008166

> <SMILES>
Clc1ccc2OCC[C@@H](C(=O)Nc3cn[nH]c3C3CC3)c2c1

$$$$

  CDD

  0  0  0  0  0  0            999 V2000
M  END
> <Molecule Name>
CVD-0008165

> <SMILES>
Clc1ccc2OCC[C@@H](C(=O)Nc3nn[nH]c3C3CC3)c2c1

$$$$

  CDD

  0  0  0  0  0  0            999 V2000
M  END
> <Molecule Name>
CVD-0008164

> <SMILES>
Clc1cccc(c1)[C@@H]1CC(=O)N(C1=O)c1nncn1C1CC1

$$$$

  CDD

  0  0  0  0  0  0            999 V2000
M  END
> <Molecule Name>
CVD-0008163

> <SMILES>
Fc1cccc2C(CCOc12)C(=O)Nc1nncn1C1CC1

$$$$

  CDD

  0  0  0  0  0  0            999 V2000
M  END
> <Molecule Name>
CVD-0008162

> <SMILES>
CN(C)C1(CCOc2ccccc12)C(=O)Nc1nncn1C1CC1

$$$$

  CDD

  0  0  0  0  0  0            999 V2000
M  END
> <Molecule Name>
CVD-0008161

> <SMILES>
CC1(CCOc2ccc(Cl)cc12)C(=O)Nc1nncn1C1CC1

$$$$

  CDD

  0  0  0  0  0  0            999 V2000
M  END
> <Molecule Name>
CVD-0008160

> <SMILES>
Brc1ccc2OCCC(C(=O)Nc3nncn3C3CC3)c2c1

$$$$

  CDD

  0  0  0  0  0  0            999 V2000
M  END
> <Molecule Name>
CVD-0008159

> <SMILES>
CC1(CCOc2ccccc12)C(=O)Nc1nncn1C1CC1

$$$$

  CDD

  0  0  0  0  0  0            999 V2000
M  END
> <Molecule Name>
CVD-0008158

> <SMILES>
NC1(CCOc2ccccc12)C(=O)Nc1nncn1C1CC1

$$$$

  CDD

  0  0  0  0  0  0            999 V2000
M  END
> <Molecule Name>
CVD-0008157

> <SMILES>
Clc1ccc2OCC[C@@H](C(=O)Nc3nncn3C3CCC3)c2c1

$$$$

  CDD

  0  0  0  0  0  0            999 V2000
M  END
> <Molecule Name>
CVD-0008156

> <SMILES>
CN(C(=O)[C@@H]1CCOc2ccc(Cl)cc12)c1nncn1C1CC1

$$$$

  CDD

  0  0  0  0  0  0            999 V2000
M  END
> <Molecule Name>
CVD-0008155

> <SMILES>
Clc1ccc2OCC[C@@H](C(=O)Nc3cnccc3C3CC3)c2c1

$$$$

  CDD

  0  0  0  0  0  0            999 V2000
M  END
> <Molecule Name>
CVD-0008154

> <SMILES>
Clc1ccc2OCCN(C(=O)Nc3nncn3C3CC3)c2c1

$$$$

  CDD

  0  0  0  0  0  0            999 V2000
M  END
> <Molecule Name>
CVD-0008153

> <SMILES>
COc1ccc2c(NC(=O)C3CCOc4ccc(Cl)cc34)cc(=O)[nH]c2c1

$$$$

  CDD

  0  0  0  0  0  0            999 V2000
M  END
> <Molecule Name>
CVD-0008152

> <SMILES>
Clc1ccc2OCCC(C(=O)Nc3cc(=O)[nH]c4ccccc34)c2c1

$$$$

  CDD

  0  0  0  0  0  0            999 V2000
M  END
> <Molecule Name>
CVD-0008151

> <SMILES>
Cc1nnc(NC(=O)[C@@H]2CCOc3ccc(Cl)cc23)n1C1CC1

$$$$

  CDD

  0  0  0  0  0  0            999 V2000
M  END
> <Molecule Name>
CVD-0008150

> <SMILES>
Fc1ccc2OCC[C@@H](NC(=O)Nc3cc(on3)C3CC3)c2c1

$$$$

  CDD

  0  0  0  0  0  0            999 V2000
M  END
> <Molecule Name>
CVD-0008149

> <SMILES>
CCc1nocc1NC(=O)[C@H]1COc2cc(F)ccc2C1

$$$$

  CDD

  0  0  0  0  0  0            999 V2000
M  END
> <Molecule Name>
CVD-0008148

> <SMILES>
OCc1cnc(NC(=O)[C@@H]2CCOc3ccc(Cl)cc23)o1

$$$$

  CDD

  0  0  0  0  0  0            999 V2000
M  END
> <Molecule Name>
CVD-0008147

> <SMILES>
Clc1cc(CC2CC(=O)N2)c2OCCC(C(=O)Nc3nncn3C3CC3)c2c1

$$$$

  CDD

  0  0  0  0  0  0            999 V2000
M  END
> <Molecule Name>
CVD-0008146

> <SMILES>
Clc1cc2C(COc2c(OC2CC(=O)N2)c1)C(=O)Nc1nncn1C1CC1

$$$$

  CDD

  0  0  0  0  0  0            999 V2000
M  END
> <Molecule Name>
CVD-0008145

> <SMILES>
FC(F)(F)COc1ccc2OCCC(C(=O)Nc3nncn3C3CC3)c2c1

$$$$

  CDD

  0  0  0  0  0  0            999 V2000
M  END
> <Molecule Name>
CVD-0008144

> <SMILES>
Clc1ccc2OCCC(C(=O)C(=C)c3cncn3C3CC3)c2c1

$$$$

  CDD

  0  0  0  0  0  0            999 V2000
M  END
> <Molecule Name>
CVD-0008143

> <SMILES>
O=C(Nc1nncn1C1CC1)C1CCOc2ccc(OC3CC3)cc12

$$$$

  CDD

  0  0  0  0  0  0            999 V2000
M  END
> <Molecule Name>
CVD-0008142

> <SMILES>
Oc1ccc2OCCC(C(=O)Nc3nncn3C3CC3)c2c1

$$$$

  CDD

  0  0  0  0  0  0            999 V2000
M  END
> <Molecule Name>
CVD-0008141

> <SMILES>
C[C@@H]1CN(Cc2ccccc2O1)C(=O)Nc1cnnn1C1CC1

$$$$

  CDD

  0  0  0  0  0  0            999 V2000
M  END
> <Molecule Name>
CVD-0008140

> <SMILES>
COC1CC1n1cnnc1NC(=O)C1CCOc2ccc(Cl)cc12

$$$$

  CDD

  0  0  0  0  0  0            999 V2000
M  END
> <Molecule Name>
CVD-0008139

> <SMILES>
COc1ccc2[C@@H](CC(=O)Nc3nncn3C3CC3)COc2c1

$$$$

  CDD

  0  0  0  0  0  0            999 V2000
M  END
> <Molecule Name>
CVD-0008138

> <SMILES>
Brc1ccc2OCC[C@@H](NC(=O)Nc3cnnn3C3CC3)c2c1

$$$$

  CDD

  0  0  0  0  0  0            999 V2000
M  END
> <Molecule Name>
CVD-0008137

> <SMILES>
Clc1ccc2OC[C@@H](NC(=O)Nc3cnnn3C3CC3)c2c1

$$$$

  CDD

  0  0  0  0  0  0            999 V2000
M  END
> <Molecule Name>
CVD-0008136

> <SMILES>
Brc1ccc2OC[C@@H](C(=O)Nc3cnnn3C3CC3)c2c1

$$$$

  CDD

  0  0  0  0  0  0            999 V2000
M  END
> <Molecule Name>
CVD-0008135

> <SMILES>
Clc1ccc2OC[C@@H](C(=O)Nc3cnnn3C3CC3)c2c1

$$$$

  CDD

  0  0  0  0  0  0            999 V2000
M  END
> <Molecule Name>
CVD-0008134

> <SMILES>
Brc1ccc2OCC[C@@H](NC(=O)Nc3ncn(n3)C3CC3)c2c1

$$$$

  CDD

  0  0  0  0  0  0            999 V2000
M  END
> <Molecule Name>
CVD-0008133

> <SMILES>
Clc1ccc2[C@H](CCCOc2c1)NC(=O)Nc1cnnn1C1CC1

$$$$

  CDD

  0  0  0  0  0  0            999 V2000
M  END
> <Molecule Name>
CVD-0008132

> <SMILES>
Fc1ccc2OCCN(Cc2c1)C(=O)Nc1cnnn1C1CC1

$$$$

  CDD

  0  0  0  0  0  0            999 V2000
M  END
> <Molecule Name>
CVD-0008131

> <SMILES>
Clc1ccc2OC[C@@H](NC(=O)Nc3ncn(n3)C3CC3)c2c1

$$$$

  CDD

  0  0  0  0  0  0            999 V2000
M  END
> <Molecule Name>
CVD-0008130

> <SMILES>
Clc1ccc2OCC[C@@H](C(=O)Nc3cnnn3C3CC3)c2c1

$$$$

  CDD

  0  0  0  0  0  0            999 V2000
M  END
> <Molecule Name>
CVD-0008129

> <SMILES>
OC1CC1n1cnnc1NC(=O)C1CCOc2ccc(Cl)cc12

$$$$

  CDD

  0  0  0  0  0  0            999 V2000
M  END
> <Molecule Name>
CVD-0008128

> <SMILES>
Brc1ccc2OCC[C@@H](C(=O)Nc3cnnn3C3CC3)c2c1

$$$$

  CDD

  0  0  0  0  0  0            999 V2000
M  END
> <Molecule Name>
CVD-0008127

> <SMILES>
Brc1ccc2OC[C@@H](C(=O)Nc3nncn3C3CC3)c2c1

$$$$

  CDD

  0  0  0  0  0  0            999 V2000
M  END
> <Molecule Name>
CVD-0008126

> <SMILES>
Clc1ccc2OC[C@@H](C(=O)Nc3nncn3C3CC3)c2c1

$$$$

  CDD

  0  0  0  0  0  0            999 V2000
M  END
> <Molecule Name>
CVD-0008125

> <SMILES>
Brc1ccc2OCC[C@@H](C(=O)Nc3nncn3C3CC3)c2c1

$$$$

  CDD

  0  0  0  0  0  0            999 V2000
M  END
> <Molecule Name>
CVD-0008124

> <SMILES>
CCn1cnnc1NC(=O)[C@@H]1CCOc2ccc(Br)cc12

$$$$

  CDD

  0  0  0  0  0  0            999 V2000
M  END
> <Molecule Name>
CVD-0008123

> <SMILES>
O=C(Nc1nncn1C1CC1)[C@@H]1CCc2ccccc2O1

$$$$

  CDD

  0  0  0  0  0  0            999 V2000
M  END
> <Molecule Name>
CVD-0008122

> <SMILES>
CC(C)n1cc(NC(=O)[C@@H]2COc3ccc(Cl)cc23)nn1

$$$$

  CDD

  0  0  0  0  0  0            999 V2000
M  END
> <Molecule Name>
CVD-0008121

> <SMILES>
Fc1ccc2C[C@H](COc2c1)C(=O)Nc1cnnn1C1CC1

$$$$

  CDD

  0  0  0  0  0  0            999 V2000
M  END
> <Molecule Name>
CVD-0008120

> <SMILES>
Clc1ccc2OCCN(CC(=O)Nc3nncn3C3CC3)c2c1

$$$$

  CDD

  0  0  0  0  0  0            999 V2000
M  END
> <Molecule Name>
CVD-0008119

> <SMILES>
Clc1ccc2OCC[C@@H](C(=O)Nc3cnoc3C3CCC3)c2c1

$$$$

  CDD

  0  0  0  0  0  0            999 V2000
M  END
> <Molecule Name>
CVD-0008118

> <SMILES>
Fc1ccc2CN(CCOc2c1)C(=O)c1ncoc1C1CC1

$$$$

  CDD

  0  0  0  0  0  0            999 V2000
M  END
> <Molecule Name>
CVD-0008117

> <SMILES>
Clc1ccc2OCC[C@H](C(=O)Nc3oncc3C3CCC3)c2c1

$$$$

  CDD

  0  0  0  0  0  0            999 V2000
M  END
> <Molecule Name>
CVD-0008116

> <SMILES>
Clc1ccc2O[C@@H](CC(=O)Nc3nncn3C3CC3)Cc2c1

$$$$

  CDD

  0  0  0  0  0  0            999 V2000
M  END
> <Molecule Name>
CVD-0008115

> <SMILES>
Clc1ccc2OCC[C@@H](C(=O)Nc3cnoc3C3CC3)c2c1

$$$$

  CDD

  0  0  0  0  0  0            999 V2000
M  END
> <Molecule Name>
CVD-0008114

> <SMILES>
Clc1ccc2OCC[C@@H](C(=O)Nc3oncc3C3CC3)c2c1

$$$$

  CDD

  0  0  0  0  0  0            999 V2000
M  END
> <Molecule Name>
CVD-0008113

> <SMILES>
CC(C)n1ncnc1NC(=O)[C@@H]1COc2ccc(Cl)cc12

$$$$

  CDD

  0  0  0  0  0  0            999 V2000
M  END
> <Molecule Name>
CVD-0008112

> <SMILES>
CCn1cnnc1NC(=O)[C@H]1COc2cc(Cl)ccc2C1

$$$$

  CDD

  0  0  0  0  0  0            999 V2000
M  END
> <Molecule Name>
CVD-0008111

> <SMILES>
Cn1c(NC(=O)[C@@H]2COc3ccc(Cl)cc23)nnc1C1CC1

$$$$

  CDD

  0  0  0  0  0  0            999 V2000
M  END
> <Molecule Name>
CVD-0008110

> <SMILES>
Cn1c(NC(=O)[C@@H]2CCOc3ccc(Cl)cc23)nnc1C1CC1

$$$$

  CDD

  0  0  0  0  0  0            999 V2000
M  END
> <Molecule Name>
CVD-0008109

> <SMILES>
Cc1nnc(NC(=O)[C@@H]2COc3ccc(Cl)cc23)n1C1CC1

$$$$

  CDD

  0  0  0  0  0  0            999 V2000
M  END
> <Molecule Name>
CVD-0008108

> <SMILES>
FC(F)c1ccc2OCCC(C(=O)Nc3nncn3C3CC3)c2c1

$$$$

  CDD

  0  0  0  0  0  0            999 V2000
M  END
> <Molecule Name>
CVD-0008107

> <SMILES>
OCc1ccc2OCCC(C(=O)Nc3nncn3C3CC3)c2c1

$$$$

  CDD

  0  0  0  0  0  0            999 V2000
M  END
> <Molecule Name>
CVD-0008106

> <SMILES>
CCc1ccc2OCCC(C(=O)Nc3nncn3C3CC3)c2c1

$$$$

  CDD

  0  0  0  0  0  0            999 V2000
M  END
> <Molecule Name>
CVD-0008105

> <SMILES>
O=C(Nc1nncn1C1CC1)C1CCOc2ccc(cc12)C#C

$$$$

  CDD

  0  0  0  0  0  0            999 V2000
M  END
> <Molecule Name>
CVD-0008104

> <SMILES>
Clc1ccc2OCC[C@@]3(OCCN(c4nncn4C4CC4)C3=O)c2c1

$$$$

  CDD

  0  0  0  0  0  0            999 V2000
M  END
> <Molecule Name>
CVD-0008103

> <SMILES>
Cc1ccc2OCC[C@H](C(=O)Nc3nncn3C3CC3)c2c1

$$$$

  CDD

  0  0  0  0  0  0            999 V2000
M  END
> <Molecule Name>
CVD-0008102

> <SMILES>
Clc1ccc2OCC[C@H](NC(=O)c3nncn3C3CC3)c2c1

$$$$

  CDD

  0  0  0  0  0  0            999 V2000
M  END
> <Molecule Name>
CVD-0008101

> <SMILES>
Clc1ccc2OCC[C@@H](c2c1)S(=O)(=O)Nc1nncn1C1CC1

$$$$

  CDD

  0  0  0  0  0  0            999 V2000
M  END
> <Molecule Name>
CVD-0008100

> <SMILES>
Clc1ccc2OCC[C@H](CNc3nncn3C3CC3)c2c1

$$$$

  CDD

  0  0  0  0  0  0            999 V2000
M  END
> <Molecule Name>
CVD-0008099

> <SMILES>
Clc1ccc2OCC[C@@]3(CCN(C3=O)c3nncn3C3CC3)c2c1

$$$$

  CDD

  0  0  0  0  0  0            999 V2000
M  END
> <Molecule Name>
CVD-0008098

> <SMILES>
CC1(C)O[C@H](C(=O)Nc2nncn2C2CC2)c2cc(Cl)ccc2O1

$$$$

  CDD

  0  0  0  0  0  0            999 V2000
M  END
> <Molecule Name>
CVD-0008097

> <SMILES>
Clc1ccc2CCO[C@H](C(=O)Nc3nncn3C3CC3)c2c1

$$$$

  CDD

  0  0  0  0  0  0            999 V2000
M  END
> <Molecule Name>
CVD-0008096

> <SMILES>
CC(C)n1cnnc1NC(=O)[C@H]1CCOc2ccc(Cl)cc12

$$$$

  CDD

  0  0  0  0  0  0            999 V2000
M  END
> <Molecule Name>
CVD-0008095

> <SMILES>
Clc1ccc2OCC[C@H](C(=O)Nc3nncn3C3COC3)c2c1

$$$$

  CDD

  0  0  0  0  0  0            999 V2000
M  END
> <Molecule Name>
CVD-0008094

> <SMILES>
OC[C@@]1(CCOc2ccc(Cl)cc12)C(=O)Nc1nncn1C1CC1

$$$$

  CDD

  0  0  0  0  0  0            999 V2000
M  END
> <Molecule Name>
CVD-0008093

> <SMILES>
C[C@@]1(CCOc2ccc(Cl)cc12)C(=O)Nc1nncn1C1CC1

$$$$

  CDD

  0  0  0  0  0  0            999 V2000
M  END
> <Molecule Name>
CVD-0008092

> <SMILES>
OCCN1CC[C@H](C(=O)Nc2nncn2C2CC2)c2cc(Cl)ccc12

$$$$

  CDD

  0  0  0  0  0  0            999 V2000
M  END
> <Molecule Name>
CVD-0008091

> <SMILES>
Clc1ccc2NCC[C@H](C(=O)Nc3nncn3C3CC3)c2c1

$$$$

  CDD

  0  0  0  0  0  0            999 V2000
M  END
> <Molecule Name>
CVD-0008090

> <SMILES>
O=C(Nc1nncn1C1CC1)[C@H]1CCOc2ccc(cc12)C1CC1

$$$$

  CDD

  0  0  0  0  0  0            999 V2000
M  END
> <Molecule Name>
CVD-0008089

> <SMILES>
C[C@@H]1COc2ccc(Cl)cc2[C@H]1C(=O)Nc1nncn1C1CC1

$$$$

  CDD

  0  0  0  0  0  0            999 V2000
M  END
> <Molecule Name>
CVD-0008088

> <SMILES>
O=C(Nc1nncn1C1CC1)[C@H]1CCOc2ccc(cc12)C#N

$$$$

  CDD

  0  0  0  0  0  0            999 V2000
M  END
> <Molecule Name>
CVD-0008087

> <SMILES>
Clc1cc(OC2CC(=O)N2)c2OCC[C@@H](C(=O)Nc3nncn3C3CC3)c2c1

$$$$

  CDD

  0  0  0  0  0  0            999 V2000
M  END
> <Molecule Name>
CVD-0008086

> <SMILES>
OCCn1cnnc1NC(=O)C1CCOc2ccc(Cl)cc12

$$$$

  CDD

  0  0  0  0  0  0            999 V2000
M  END
> <Molecule Name>
CVD-0008085

> <SMILES>
CC(C)n1cnnc1NC(=O)C1CCOc2ccc(Cl)cc12

$$$$

  CDD

  0  0  0  0  0  0            999 V2000
M  END
> <Molecule Name>
CVD-0008084

> <SMILES>
CCn1cnnc1NC(=O)C1CCOc2ccc(Cl)cc12

$$$$

  CDD

  0  0  0  0  0  0            999 V2000
M  END
> <Molecule Name>
CVD-0008083

> <SMILES>
Cn1cnnc1NC(=O)C1CCOc2ccc(Cl)cc12

$$$$

  CDD

  0  0  0  0  0  0            999 V2000
M  END
> <Molecule Name>
CVD-0008082

> <SMILES>
Cn1cncc1NC(=O)C1CCOc2ccc(Cl)cc12

$$$$

  CDD

  0  0  0  0  0  0            999 V2000
M  END
> <Molecule Name>
CVD-0008081

> <SMILES>
CCn1cncc1NC(=O)C1CCOc2ccc(Cl)cc12

$$$$

  CDD

  0  0  0  0  0  0            999 V2000
M  END
> <Molecule Name>
CVD-0008080

> <SMILES>
CC(C)n1cncc1NC(=O)C1CCOc2ccc(Cl)cc12

$$$$

  CDD

  0  0  0  0  0  0            999 V2000
M  END
> <Molecule Name>
CVD-0008079

> <SMILES>
Clc1ccc2OCCC(C(=O)Nc3cncn3C3CC3)c2c1

$$$$

  CDD

  0  0  0  0  0  0            999 V2000
M  END
> <Molecule Name>
CVD-0008078

> <SMILES>
OC1CC(N(C1)S(=O)(=O)c1ccc2OCCOc2c1)C(=O)NNC(=S)Nc1ccc(F)cc1F

$$$$

  CDD

  0  0  0  0  0  0            999 V2000
M  END
> <Molecule Name>
CVD-0008077

> <SMILES>
Fc1ccc(F)c(\C=C2\SC(=S)N(C2=O)c2cccnc2)c1

$$$$

  CDD

  0  0  0  0  0  0            999 V2000
M  END
> <Molecule Name>
CVD-0008076

> <SMILES>
CC(NC(=O)c1cccc(c1)S(=O)(=O)N1CCCC1)c1nnc2ccccn12

$$$$

  CDD

  0  0  0  0  0  0            999 V2000
M  END
> <Molecule Name>
CVD-0008075

> <SMILES>
CC(=O)OCC1=C(N2[C@H](SC1)[C@H](NC(=O)Cc1cccs1)C2=O)C(O)=O

$$$$

  CDD

  0  0  0  0  0  0            999 V2000
M  END
> <Molecule Name>
CVD-0008074

> <SMILES>
CC(=O)N(c1nc(\C=C(/C#N)C(=O)Nc2ccc(cc2)S(N)(=O)=O)cs1)c1ccccc1

$$$$

  CDD

  0  0  0  0  0  0            999 V2000
M  END
> <Molecule Name>
CVD-0008073

> <SMILES>
CS(=O)(=O)Nc1cccc(c1)C1=NN(C(C1)c1ccccc1)C(=O)CCl

$$$$

  CDD

  0  0  0  0  0  0            999 V2000
M  END
> <Molecule Name>
CVD-0008072

> <SMILES>
CCc1ccc2c(COC(=O)c3cccc(NS(=O)(=O)\C=C\c4ccccc4)c3)cc(=O)oc2c1

$$$$

  CDD

  0  0  0  0  0  0            999 V2000
M  END
> <Molecule Name>
CVD-0008071

> <SMILES>
CN(CC(=O)Nc1ccccc1Br)C(=O)CCl

$$$$

  CDD

  0  0  0  0  0  0            999 V2000
M  END
> <Molecule Name>
CVD-0008070

> <SMILES>
CSCCC(NS(=O)(=O)\C=C\c1ccccc1)C(=O)N1CCN(CC1)C(=O)c1ccco1

$$$$

  CDD

  0  0  0  0  0  0            999 V2000
M  END
> <Molecule Name>
CVD-0008069

> <SMILES>
CC(CNC(=O)CC(O)(c1nccn1C)C(F)(F)F)c1ccccc1

$$$$

  CDD

  0  0  0  0  0  0            999 V2000
M  END
> <Molecule Name>
CVD-0008068

> <SMILES>
OC(=O)c1ccccc1NS(=O)(=O)c1ccc(N\N=C\c2c([nH]c3ccccc23)-c2ccccc2)c(c1)[N+]([O-])=O

$$$$

  CDD

  0  0  0  0  0  0            999 V2000
M  END
> <Molecule Name>
CVD-0008067

> <SMILES>
CCCCSC(C)C(=O)Nc1ccc(cc1-n1ccnc1)C(N)=O

$$$$

  CDD

  0  0  0  0  0  0            999 V2000
M  END
> <Molecule Name>
CVD-0008066

> <SMILES>
Cc1cc(C(=O)CCl)c(C)n1NC(=O)c1n[nH]c(=O)c2ccccc12

$$$$

  CDD

  0  0  0  0  0  0            999 V2000
M  END
> <Molecule Name>
CVD-0008065

> <SMILES>
CCN(c1ccccc1)S(=O)(=O)c1ccc(OC)c(NC(=O)CCl)c1

$$$$

  CDD

  0  0  0  0  0  0            999 V2000
M  END
> <Molecule Name>
CVD-0008064

> <SMILES>
FC(F)(F)c1cccc(CNC(=O)c2ccc(NS(=O)(=O)\C=C\c3ccccc3)cc2)c1

$$$$

  CDD

  0  0  0  0  0  0            999 V2000
M  END
> <Molecule Name>
CVD-0008063

> <SMILES>
CN(Cc1ccccc1N1CCOCC1)C(=O)C1CCN(CC1)S(=O)(=O)\C=C\c1ccccc1

$$$$

  CDD

  0  0  0  0  0  0            999 V2000
M  END
> <Molecule Name>
CVD-0008062

> <SMILES>
O=C(Nn1cnc2ccccc12)c1oc2ccccc2c1CSc1nnc[nH]1

$$$$

  CDD

  0  0  0  0  0  0            999 V2000
M  END
> <Molecule Name>
CVD-0008061

> <SMILES>
Cc1cc(C(=O)CCl)c(C)n1CC1COc2ccccc2O1

$$$$

  CDD

  0  0  0  0  0  0            999 V2000
M  END
> <Molecule Name>
CVD-0008060

> <SMILES>
COc1ccc(cc1)S(=O)(=O)N\N=C\c1ccc(OC(=O)Nc2ccccc2)c(OC)c1

$$$$

  CDD

  0  0  0  0  0  0            999 V2000
M  END
> <Molecule Name>
CVD-0008059

> <SMILES>
Cc1cccc(C)c1NC(=O)CN1CCN(CC1)C(=O)CCl

$$$$

  CDD

  0  0  0  0  0  0            999 V2000
M  END
> <Molecule Name>
CVD-0008058

> <SMILES>
Clc1cnc2[nH]c(SCC(=O)N3CCN(CC3)S(=O)(=O)\C=C\c3ccccc3)nc2c1

$$$$

  CDD

  0  0  0  0  0  0            999 V2000
M  END
> <Molecule Name>
CVD-0008057

> <SMILES>
FC(F)(F)c1ccccc1NC(=O)CN(Cc1ccco1)C(=O)CCl

$$$$

  CDD

  0  0  0  0  0  0            999 V2000
M  END
> <Molecule Name>
CVD-0008056

> <SMILES>
Cc1cc(C(=O)CCl)c(C)n1-c1cccc(c1)S(=O)(=O)N1CCOCC1

$$$$

  CDD

  0  0  0  0  0  0            999 V2000
M  END
> <Molecule Name>
CVD-0008055

> <SMILES>
O=C(CNS(=O)(=O)\C=C\c1ccccc1)OCC(=O)C(C#N)=C1Nc2ccccc2N1

$$$$

  CDD

  0  0  0  0  0  0            999 V2000
M  END
> <Molecule Name>
CVD-0008054

> <SMILES>
COC(=O)c1cc(cc(c1)-n1c(C)cc(C(=O)CCl)c1C)C(=O)OC

$$$$

  CDD

  0  0  0  0  0  0            999 V2000
M  END
> <Molecule Name>
CVD-0008053

> <SMILES>
ClCC(=O)N(NC(=O)Nc1ccccc1)c1ccccc1

$$$$

  CDD

  0  0  0  0  0  0            999 V2000
M  END
> <Molecule Name>
CVD-0008052

> <SMILES>
CC(=O)N1Cc2ccccc2CC1C(=O)Nc1nc(C)ccc1O

$$$$

  CDD

  0  0  0  0  0  0            999 V2000
M  END
> <Molecule Name>
CVD-0008051

> <SMILES>
CCn1cc(nc1C)S(=O)(=O)Nc1cccnc1-n1cccn1

$$$$

  CDD

  0  0  0  0  0  0            999 V2000
M  END
> <Molecule Name>
CVD-0008050

> <SMILES>
O=C(CCn1cnc2ccccc12)Nc1cccc2ncccc12

$$$$

  CDD

  0  0  0  0  0  0            999 V2000
M  END
> <Molecule Name>
CVD-0008049

> <SMILES>
Cc1ccccc1S(=O)(=O)Nc1ccccc1C1=NN(C(C1)c1ccco1)C(=O)CCC(O)=O

$$$$

  CDD

  0  0  0  0  0  0            999 V2000
M  END
> <Molecule Name>
CVD-0008048

> <SMILES>
COc1ccc(cc1)C1C(O)C(=NN1C(=O)CCl)c1c[nH]c2ccccc12

$$$$

  CDD

  0  0  0  0  0  0            999 V2000
M  END
> <Molecule Name>
CVD-0008047

> <SMILES>
ClCC(=O)N1N=C(CC1c1ccco1)c1cc2ccccc2o1

$$$$

  CDD

  0  0  0  0  0  0            999 V2000
M  END
> <Molecule Name>
CVD-0008046

> <SMILES>
OC(=O)CNCC1CCCN(C1)S(=O)(=O)\C=C\c1cccc(Cl)c1

$$$$

  CDD

  0  0  0  0  0  0            999 V2000
M  END
> <Molecule Name>
CVD-0008045

> <SMILES>
Fc1ccc2C(CC(=O)Nc2c1)C(=O)NCCCn1cnc2ccccc12

$$$$

  CDD

  0  0  0  0  0  0            999 V2000
M  END
> <Molecule Name>
CVD-0008044

> <SMILES>
O=C(CCNS(=O)(=O)\C=C\c1ccccc1)N1CCN(CC1)C(=O)c1ccccc1

$$$$

  CDD

  0  0  0  0  0  0            999 V2000
M  END
> <Molecule Name>
CVD-0008043

> <SMILES>
ClCC(=O)N1CCC(C1)Nc1cccc(c1)C#N

$$$$

  CDD

  0  0  0  0  0  0            999 V2000
M  END
> <Molecule Name>
CVD-0008042

> <SMILES>
O=C(CCC1Cc2ccccc2NC1=O)NCc1cccnc1-n1ccnc1

$$$$

  CDD

  0  0  0  0  0  0            999 V2000
M  END
> <Molecule Name>
CVD-0008041

> <SMILES>
CSC1=C(C#N)C2(CCCCC2)C(C#N)=C(NC(=O)CCl)N1

$$$$

  CDD

  0  0  0  0  0  0            999 V2000
M  END
> <Molecule Name>
CVD-0008040

> <SMILES>
CCCN(CC(=O)Nc1ccc(F)c(F)c1F)C(=O)CSc1nc2ccccc2o1

$$$$

  CDD

  0  0  0  0  0  0            999 V2000
M  END
> <Molecule Name>
CVD-0008039

> <SMILES>
ClCC(=O)N1N=C(CC1c1ccccc1)c1ccc2ccccc2c1

$$$$

  CDD

  0  0  0  0  0  0            999 V2000
M  END
> <Molecule Name>
CVD-0008038

> <SMILES>
Cc1c(C(=O)CCl)c2ccccn2c1C(=O)c1ccc(F)cc1

$$$$

  CDD

  0  0  0  0  0  0            999 V2000
M  END
> <Molecule Name>
CVD-0008037

> <SMILES>
O=C(NCc1cccnc1-n1ccnc1)C1CCOc2ccccc12

$$$$

  CDD

  0  0  0  0  0  0            999 V2000
M  END
> <Molecule Name>
CVD-0008036

> <SMILES>
O=C(N1CCN(CC1)S(=O)(=O)\C=C\c1ccccc1)c1ccc(cc1)C#N

$$$$

  CDD

  0  0  0  0  0  0            999 V2000
M  END
> <Molecule Name>
CVD-0008035

> <SMILES>
CN(C)S(=O)(=O)c1cccc(c1)C(=O)Nc1c(nc2sccn12)-c1ccccc1

$$$$

  CDD

  0  0  0  0  0  0            999 V2000
M  END
> <Molecule Name>
CVD-0008034

> <SMILES>
CN(C)C(=O)c1cc(OC(N)=O)cc2oc3C=C(C)C(=C)c3c(=O)c12

$$$$

  CDD

  0  0  0  0  0  0            999 V2000
M  END
> <Molecule Name>
CVD-0008033

> <SMILES>
CC(C(=O)Nc1nncn1C1CC1)c1cccc(Cl)c1

$$$$

  CDD

  0  0  0  0  0  0            999 V2000
M  END
> <Molecule Name>
CVD-0008032

> <SMILES>
Cc1ccncc1NC(=O)C1CCOc2ccc(Cl)cc12

$$$$

  CDD

  0  0  0  0  0  0            999 V2000
M  END
> <Molecule Name>
CVD-0008031

> <SMILES>
COc1cc2ncn(CCCC(=O)Nc3cccnc3)c(=O)c2cc1OC

$$$$

  CDD

  0  0  0  0  0  0            999 V2000
M  END
> <Molecule Name>
CVD-0008030

> <SMILES>
NCCc1nc(CC(=O)Nc2cccnc2)cs1

$$$$

  CDD

  0  0  0  0  0  0            999 V2000
M  END
> <Molecule Name>
CVD-0008029

> <SMILES>
CN(CC(=O)Nc1cccnc1)S(=O)(=O)c1ccc(cc1)C(C)=O

$$$$

  CDD

  0  0  0  0  0  0            999 V2000
M  END
> <Molecule Name>
CVD-0008028

> <SMILES>
COc1cccc(c1)C(C(O)=O)C(=O)Nc1cccnc1

$$$$

  CDD

  0  0  0  0  0  0            999 V2000
M  END
> <Molecule Name>
CVD-0008027

> <SMILES>
Brc1csc(c1)C(N1CCOCC1)C(=O)Nc1cccnc1

$$$$

  CDD

  0  0  0  0  0  0            999 V2000
M  END
> <Molecule Name>
CVD-0008026

> <SMILES>
Cc1ccc(cc1C(=O)Nc1cccnc1)S(=O)(=O)NCc1ccco1

$$$$

  CDD

  0  0  0  0  0  0            999 V2000
M  END
> <Molecule Name>
CVD-0008025

> <SMILES>
O=C(Cc1ccc(s1)S(=O)(=O)N1CCOCC1)Nc1cccnc1

$$$$

  CDD

  0  0  0  0  0  0            999 V2000
M  END
> <Molecule Name>
CVD-0008024

> <SMILES>
Cn1c2nc(CCC(=O)Nc3cccnc3)[nH]c2c(=O)[nH]c1=O

$$$$

  CDD

  0  0  0  0  0  0            999 V2000
M  END
> <Molecule Name>
CVD-0008023

> <SMILES>
O=C(Nc1cccnc1)C(N1CCS(=O)(=O)CC1)c1ccccc1

$$$$

  CDD

  0  0  0  0  0  0            999 V2000
M  END
> <Molecule Name>
CVD-0008022

> <SMILES>
Nc1nc(nc(n1)C(=O)Nc1cccnc1)N1CCOCC1

$$$$

  CDD

  0  0  0  0  0  0            999 V2000
M  END
> <Molecule Name>
CVD-0008021

> <SMILES>
Clc1ccc(C(N2CCOCC2)C(=O)Nc2cccnc2)c(Cl)c1

$$$$

  CDD

  0  0  0  0  0  0            999 V2000
M  END
> <Molecule Name>
CVD-0008020

> <SMILES>
COc1cccc(c1)C1C(CC(=O)N1C1CC1)C(=O)Nc1cccnc1

$$$$

  CDD

  0  0  0  0  0  0            999 V2000
M  END
> <Molecule Name>
CVD-0008019

> <SMILES>
Clc1cc(Cl)c(cc1C(=O)Nc1cccnc1)S(=O)(=O)N1CCN(CC1)C(=O)c1ccco1

$$$$

  CDD

  0  0  0  0  0  0            999 V2000
M  END
> <Molecule Name>
CVD-0008018

> <SMILES>
Clc1ccc(cc1C(=O)Nc1cccnc1)S(=O)(=O)Nc1ccc(Br)cc1

$$$$

  CDD

  0  0  0  0  0  0            999 V2000
M  END
> <Molecule Name>
CVD-0008017

> <SMILES>
Cc1ccc(cc1C(=O)Nc1cccnc1)S(=O)(=O)Nc1ccc(F)cc1

$$$$

  CDD

  0  0  0  0  0  0            999 V2000
M  END
> <Molecule Name>
CVD-0008016

> <SMILES>
O=C(CNS(=O)(=O)c1ccc2NC(=O)Cc2c1)Nc1cccnc1

$$$$

  CDD

  0  0  0  0  0  0            999 V2000
M  END
> <Molecule Name>
CVD-0008015

> <SMILES>
Cc1ccccc1NS(=O)(=O)c1ccc(cc1)C(=O)Nc1cccnc1

$$$$

  CDD

  0  0  0  0  0  0            999 V2000
M  END
> <Molecule Name>
CVD-0008014

> <SMILES>
O=C(Nc1cccnc1)C1CC(=O)NC(=O)N1

$$$$

  CDD

  0  0  0  0  0  0            999 V2000
M  END
> <Molecule Name>
CVD-0008013

> <SMILES>
Cn1ncc2c1nc(CCC(=O)Nc1cccnc1)[nH]c2=O

$$$$

  CDD

  0  0  0  0  0  0            999 V2000
M  END
> <Molecule Name>
CVD-0008012

> <SMILES>
COC(=O)CC(NC(C)=O)C(=O)Nc1cccnc1

$$$$

  CDD

  0  0  0  0  0  0            999 V2000
M  END
> <Molecule Name>
CVD-0008011

> <SMILES>
NS(=O)(=O)c1cnn(CC(=O)Nc2cccnc2)c1

$$$$

  CDD

  0  0  0  0  0  0            999 V2000
M  END
> <Molecule Name>
CVD-0008010

> <SMILES>
Oc1ccc2CC(NCc2c1)C(=O)Nc1cccnc1

$$$$

  CDD

  0  0  0  0  0  0            999 V2000
M  END
> <Molecule Name>
CVD-0008009

> <SMILES>
NC(=O)CNS(=O)(=O)c1c[nH]c(c1)C(=O)Nc1cccnc1

$$$$

  CDD

  0  0  0  0  0  0            999 V2000
M  END
> <Molecule Name>
CVD-0008008

> <SMILES>
CCCCN1C(C(CC1=O)C(=O)Nc1cccnc1)c1ccc(OC)cc1

$$$$

  CDD

  0  0  0  0  0  0            999 V2000
M  END
> <Molecule Name>
CVD-0008007

> <SMILES>
COc1ccc(CCN2CC(CC2=O)C(=O)Nc2cccnc2)cc1OC

$$$$

  CDD

  0  0  0  0  0  0            999 V2000
M  END
> <Molecule Name>
CVD-0008006

> <SMILES>
CC1(CSc2ccccc2C(=O)Nc2cccnc2)NC(=O)NC1=O

$$$$

  CDD

  0  0  0  0  0  0            999 V2000
M  END
> <Molecule Name>
CVD-0008005

> <SMILES>
O=C(CCN1C(=O)C2C3CCC(O3)C2C1=O)Nc1cccnc1

$$$$

  CDD

  0  0  0  0  0  0            999 V2000
M  END
> <Molecule Name>
CVD-0008004

> <SMILES>
O=C(Nc1cccnc1)c1cccc(c1)S(=O)(=O)Nc1ccc2OCOc2c1

$$$$

  CDD

  0  0  0  0  0  0            999 V2000
M  END
> <Molecule Name>
CVD-0008003

> <SMILES>
Cc1ccc(NS(=O)(=O)c2ccc(Cl)c(c2)C(=O)Nc2cccnc2)cc1Cl

$$$$

  CDD

  0  0  0  0  0  0            999 V2000
M  END
> <Molecule Name>
CVD-0008002

> <SMILES>
O=C(Nc1cccnc1)C(Cc1ccc(cc1)C#N)C#N

$$$$

  CDD

  0  0  0  0  0  0            999 V2000
M  END
> <Molecule Name>
CVD-0008001

> <SMILES>
O=C(Cn1cc(C#N)c(=O)[nH]c1=O)Nc1cccnc1

$$$$

  CDD

  0  0  0  0  0  0            999 V2000
M  END
> <Molecule Name>
CVD-0008000

> <SMILES>
CC(=O)NC(C)(C)C(=O)NC(C)(C)C(=O)Nc1cccnc1

$$$$

  CDD

  0  0  0  0  0  0            999 V2000
M  END
> <Molecule Name>
CVD-0007999

> <SMILES>
Oc1cccc(c1)C(=O)Nc1nc(CC(=O)Nc2cccnc2)cs1

$$$$

  CDD

  0  0  0  0  0  0            999 V2000
M  END
> <Molecule Name>
CVD-0007998

> <SMILES>
Fc1ccccc1NS(=O)(=O)c1ccc(cc1)C(=O)Nc1cccnc1

$$$$

  CDD

  0  0  0  0  0  0            999 V2000
M  END
> <Molecule Name>
CVD-0007997

> <SMILES>
COc1ccc(CN2CC(CC2=O)C(=O)Nc2cccnc2)cc1

$$$$

  CDD

  0  0  0  0  0  0            999 V2000
M  END
> <Molecule Name>
CVD-0007996

> <SMILES>
O=C(CN1C(=O)NC2(CCc3ccccc23)C1=O)Nc1cccnc1

$$$$

  CDD

  0  0  0  0  0  0            999 V2000
M  END
> <Molecule Name>
CVD-0007995

> <SMILES>
Cn1c2ncn(CCCC(=O)Nc3cccnc3)c2c(=O)n(C)c1=O

$$$$

  CDD

  0  0  0  0  0  0            999 V2000
M  END
> <Molecule Name>
CVD-0007994

> <SMILES>
Nc1ncnc2n(CC3CCC(O3)C(=O)Nc3cccnc3)cnc12

$$$$

  CDD

  0  0  0  0  0  0            999 V2000
M  END
> <Molecule Name>
CVD-0007993

> <SMILES>
O=C(CNC(=O)c1ccco1)NCC(=O)Nc1cccnc1

$$$$

  CDD

  0  0  0  0  0  0            999 V2000
M  END
> <Molecule Name>
CVD-0007992

> <SMILES>
NS(=O)(=O)c1ccc2OCC(Cc2c1)C(=O)Nc1cccnc1

$$$$

  CDD

  0  0  0  0  0  0            999 V2000
M  END
> <Molecule Name>
CVD-0007991

> <SMILES>
CNC(=O)CS(=O)(=O)c1ccc(cc1)C(=O)Nc1cccnc1

$$$$

  CDD

  0  0  0  0  0  0            999 V2000
M  END
> <Molecule Name>
CVD-0007990

> <SMILES>
O=C(CC(=O)Nc1cccc(c1)C#C)Nc1cccnc1

$$$$

  CDD

  0  0  0  0  0  0            999 V2000
M  END
> <Molecule Name>
CVD-0007989

> <SMILES>
CC(O)C(NS(=O)(=O)c1ccc2ccccc2c1)C(=O)Nc1cccnc1

$$$$

  CDD

  0  0  0  0  0  0            999 V2000
M  END
> <Molecule Name>
CVD-0007988

> <SMILES>
COc1cc(cc(C(=O)Nc2cccnc2)c1OC)S(=O)(=O)N1CCOCC1

$$$$

  CDD

  0  0  0  0  0  0            999 V2000
M  END
> <Molecule Name>
CVD-0007987

> <SMILES>
O=C(CN1C(=O)CCc2ccccc12)Nc1cccnc1

$$$$

  CDD

  0  0  0  0  0  0            999 V2000
M  END
> <Molecule Name>
CVD-0007986

> <SMILES>
Fc1ccccc1C(=O)Nc1nc(CC(=O)Nc2cccnc2)cs1

$$$$

  CDD

  0  0  0  0  0  0            999 V2000
M  END
> <Molecule Name>
CVD-0007985

> <SMILES>
Fc1ccc(NS(=O)(=O)c2ccc(Cl)c(c2)C(=O)Nc2cccnc2)cc1

$$$$

  CDD

  0  0  0  0  0  0            999 V2000
M  END
> <Molecule Name>
CVD-0007984

> <SMILES>
NC(Cc1ccc2oc(=O)[nH]c2c1)C(=O)Nc1cccnc1

$$$$

  CDD

  0  0  0  0  0  0            999 V2000
M  END
> <Molecule Name>
CVD-0007983

> <SMILES>
COc1ccc(cc1)C1C(CC(=O)N1C)C(=O)Nc1cccnc1

$$$$

  CDD

  0  0  0  0  0  0            999 V2000
M  END
> <Molecule Name>
CVD-0007982

> <SMILES>
CC1Oc2ccccc2N(CC(=O)Nc2cccnc2)C1=O

$$$$

  CDD

  0  0  0  0  0  0            999 V2000
M  END
> <Molecule Name>
CVD-0007981

> <SMILES>
COc1ccc(cc1)C1C(CC(=O)N1C1CC1)C(=O)Nc1cccnc1

$$$$

  CDD

  0  0  0  0  0  0            999 V2000
M  END
> <Molecule Name>
CVD-0007980

> <SMILES>
NC(CC(=O)Nc1cccnc1)c1cnn(c1)-c1ccccc1

$$$$

  CDD

  0  0  0  0  0  0            999 V2000
M  END
> <Molecule Name>
CVD-0007979

> <SMILES>
Cc1nc2c(cnn2c(O)c1CC(=O)Nc1cccnc1)C#N

$$$$

  CDD

  0  0  0  0  0  0            999 V2000
M  END
> <Molecule Name>
CVD-0007978

> <SMILES>
CC(=O)NC(CC(=O)Nc1cccnc1)c1ccc(F)cc1F

$$$$

  CDD

  0  0  0  0  0  0            999 V2000
M  END
> <Molecule Name>
CVD-0007977

> <SMILES>
O=C(NC1CCS(=O)(=O)C1)C1CCCCC1C(=O)Nc1cccnc1

$$$$

  CDD

  0  0  0  0  0  0            999 V2000
M  END
> <Molecule Name>
CVD-0007976

> <SMILES>
O=C(CN1C(=O)CSc2ccccc12)Nc1cccnc1

$$$$

  CDD

  0  0  0  0  0  0            999 V2000
M  END
> <Molecule Name>
CVD-0007975

> <SMILES>
COc1cc(OC)cc(c1)N1CC(CC1=O)C(=O)Nc1cccnc1

$$$$

  CDD

  0  0  0  0  0  0            999 V2000
M  END
> <Molecule Name>
CVD-0007974

> <SMILES>
O=C(Nc1cccnc1)c1ccc2CN(C3CCC(=O)NC3=O)C(=O)c2c1

$$$$

  CDD

  0  0  0  0  0  0            999 V2000
M  END
> <Molecule Name>
CVD-0007973

> <SMILES>
COc1ccc(Br)cc1NS(=O)(=O)c1cc(ccc1Cl)C(=O)Nc1cccnc1

$$$$

  CDD

  0  0  0  0  0  0            999 V2000
M  END
> <Molecule Name>
CVD-0007972

> <SMILES>
O=C(Cc1cccc(c1)N1CCCC1=O)Nc1cccnc1

$$$$

  CDD

  0  0  0  0  0  0            999 V2000
M  END
> <Molecule Name>
CVD-0007971

> <SMILES>
O=C(Nc1cccnc1)C1CNC(=O)CC11CCOC1

$$$$

  CDD

  0  0  0  0  0  0            999 V2000
M  END
> <Molecule Name>
CVD-0007970

> <SMILES>
Cn1cc(cc1CC(=O)Nc1cccnc1)S(N)(=O)=O

$$$$

  CDD

  0  0  0  0  0  0            999 V2000
M  END
> <Molecule Name>
CVD-0007969

> <SMILES>
O=C(Nc1cccnc1)c1cc(=O)[nH]c(n1)C1CCOCC1

$$$$

  CDD

  0  0  0  0  0  0            999 V2000
M  END
> <Molecule Name>
CVD-0007968

> <SMILES>
COc1ccc(CC(=O)Nc2cccnc2)cc1S(=O)(=O)N1CCOCC1

$$$$

  CDD

  0  0  0  0  0  0            999 V2000
M  END
> <Molecule Name>
CVD-0007967

> <SMILES>
O=C(Nc1cccnc1)c1ccc(cc1)S(=O)(=O)Nc1nccs1

$$$$

  CDD

  0  0  0  0  0  0            999 V2000
M  END
> <Molecule Name>
CVD-0007966

> <SMILES>
O=C(Nc1cccnc1)C1CCN(CC1)S(=O)(=O)c1ccc2OCCCOc2c1

$$$$

  CDD

  0  0  0  0  0  0            999 V2000
M  END
> <Molecule Name>
CVD-0007965

> <SMILES>
O=C(CC1(CC(=O)Nc2cccnc2)CCCCC1)Nc1nccs1

$$$$

  CDD

  0  0  0  0  0  0            999 V2000
M  END
> <Molecule Name>
CVD-0007964

> <SMILES>
O=C(Nc1cccnc1)c1csc(c1)S(=O)(=O)N1CCOCC1

$$$$

  CDD

  0  0  0  0  0  0            999 V2000
M  END
> <Molecule Name>
CVD-0007963

> <SMILES>
CCOC(=O)C1CCCN(CC(=O)Nc2cccnc2)C1

$$$$

  CDD

  0  0  0  0  0  0            999 V2000
M  END
> <Molecule Name>
CVD-0007962

> <SMILES>
Cc1noc(C)c1S(=O)(=O)N1CCC(CC1)C(=O)Nc1cccnc1

$$$$

  CDD

  0  0  0  0  0  0            999 V2000
M  END
> <Molecule Name>
CVD-0007961

> <SMILES>
O=C(NC1CCS(=O)(=O)C1)C1CC=CCC1C(=O)Nc1cccnc1

$$$$

  CDD

  0  0  0  0  0  0            999 V2000
M  END
> <Molecule Name>
CVD-0007960

> <SMILES>
O=C(Nc1cccnc1)C1CC(=O)NC(=O)C1

$$$$

  CDD

  0  0  0  0  0  0            999 V2000
M  END
> <Molecule Name>
CVD-0007959

> <SMILES>
Cc1occc1C(=O)Nc1nc(CC(=O)Nc2cccnc2)cs1

$$$$

  CDD

  0  0  0  0  0  0            999 V2000
M  END
> <Molecule Name>
CVD-0007958

> <SMILES>
COc1ccccc1CNS(=O)(=O)c1cc(C(=O)Nc2cccnc2)c(Cl)cc1Cl

$$$$

  CDD

  0  0  0  0  0  0            999 V2000
M  END
> <Molecule Name>
CVD-0007957

> <SMILES>
Cc1cccc(NS(=O)(=O)c2ccc(cc2)C(=O)Nc2cccnc2)c1C

$$$$

  CDD

  0  0  0  0  0  0            999 V2000
M  END
> <Molecule Name>
CVD-0007956

> <SMILES>
Brc1ccc(o1)C(=O)Nc1nc(CC(=O)Nc2cccnc2)cs1

$$$$

  CDD

  0  0  0  0  0  0            999 V2000
M  END
> <Molecule Name>
CVD-0007955

> <SMILES>
O=C(Nc1cccnc1)c1ccc(cc1)S(=O)(=O)N1CCNC(=O)C1

$$$$

  CDD

  0  0  0  0  0  0            999 V2000
M  END
> <Molecule Name>
CVD-0007954

> <SMILES>
O=C(Cn1cnnn1)Nc1ccccc1C(=O)Nc1cccnc1

$$$$

  CDD

  0  0  0  0  0  0            999 V2000
M  END
> <Molecule Name>
CVD-0007953

> <SMILES>
O=C(CCCCC1C2NC(=O)NC2CS1(=O)=O)Nc1cccnc1

$$$$

  CDD

  0  0  0  0  0  0            999 V2000
M  END
> <Molecule Name>
CVD-0007952

> <SMILES>
Cc1n[nH]c(C)c1S(=O)(=O)N1CCC(CC1)C(=O)Nc1cccnc1

$$$$

  CDD

  0  0  0  0  0  0            999 V2000
M  END
> <Molecule Name>
CVD-0007951

> <SMILES>
O=C(Nc1cccnc1)C1CCC2(CC1)NC(=O)NC2=O

$$$$

  CDD

  0  0  0  0  0  0            999 V2000
M  END
> <Molecule Name>
CVD-0007950

> <SMILES>
O=C(CNS(=O)(=O)c1ccc2COCc2c1)Nc1cccnc1

$$$$

  CDD

  0  0  0  0  0  0            999 V2000
M  END
> <Molecule Name>
CVD-0007949

> <SMILES>
CC(=O)NC(C(=O)N1CCCC1C(=O)Nc1cccnc1)c1ccccc1

$$$$

  CDD

  0  0  0  0  0  0            999 V2000
M  END
> <Molecule Name>
CVD-0007948

> <SMILES>
O=C(Nc1cccnc1)c1cc(c[nH]1)S(=O)(=O)N1CCOCC1

$$$$

  CDD

  0  0  0  0  0  0            999 V2000
M  END
> <Molecule Name>
CVD-0007947

> <SMILES>
CC(N1C(=S)S\C(=C/c2ccco2)C1=O)C(=O)Nc1cccnc1

$$$$

  CDD

  0  0  0  0  0  0            999 V2000
M  END
> <Molecule Name>
CVD-0007946

> <SMILES>
O=C(Nc1cccnc1)C1CCCN(C1)S(=O)(=O)c1cccnc1

$$$$

  CDD

  0  0  0  0  0  0            999 V2000
M  END
> <Molecule Name>
CVD-0007945

> <SMILES>
COCCn1cc(cn1)C1OCCC1C(=O)Nc1cccnc1

$$$$

  CDD

  0  0  0  0  0  0            999 V2000
M  END
> <Molecule Name>
CVD-0007944

> <SMILES>
COc1ccc(NS(=O)(=O)c2c[nH]c(c2)C(=O)Nc2cccnc2)cc1Cl

$$$$

  CDD

  0  0  0  0  0  0            999 V2000
M  END
> <Molecule Name>
CVD-0007943

> <SMILES>
OC1CC(N(C1)S(=O)(=O)c1ccc(F)cc1)C(=O)Nc1cccnc1

$$$$

  CDD

  0  0  0  0  0  0            999 V2000
M  END
> <Molecule Name>
CVD-0007942

> <SMILES>
O=C(Nc1cccnc1)C1CCCN(C1)c1cc(=O)[nH]cn1

$$$$

  CDD

  0  0  0  0  0  0            999 V2000
M  END
> <Molecule Name>
CVD-0007941

> <SMILES>
O=C(Nc1cccnc1)c1cnc([nH]c1=O)C1CCOCC1

$$$$

  CDD

  0  0  0  0  0  0            999 V2000
M  END
> <Molecule Name>
CVD-0007940

> <SMILES>
Cc1ccc(cc1)S(=O)(=O)N1CC(O)CC1C(=O)Nc1cccnc1

$$$$

  CDD

  0  0  0  0  0  0            999 V2000
M  END
> <Molecule Name>
CVD-0007939

> <SMILES>
Cc1cc(C(=O)Nc2cccnc2)c(C)n1Cc1ccc(cc1)S(N)(=O)=O

$$$$

  CDD

  0  0  0  0  0  0            999 V2000
M  END
> <Molecule Name>
CVD-0007938

> <SMILES>
CC(NC(=O)c1cc(ccc1Cl)S(=O)(=O)N(C)C)C(=O)Nc1cccnc1

$$$$

  CDD

  0  0  0  0  0  0            999 V2000
M  END
> <Molecule Name>
CVD-0007937

> <SMILES>
O=C(Cc1ccc2C(=O)N(Cc2c1)C1CCC(=O)NC1=O)Nc1cccnc1

$$$$

  CDD

  0  0  0  0  0  0            999 V2000
M  END
> <Molecule Name>
CVD-0007936

> <SMILES>
CS(=O)(=O)c1cccc(c1)S(=O)(=O)NCC(=O)Nc1cccnc1

$$$$

  CDD

  0  0  0  0  0  0            999 V2000
M  END
> <Molecule Name>
CVD-0007935

> <SMILES>
CC(C)C(NC(=O)c1cc(ccc1Cl)S(=O)(=O)N(C)C)C(=O)Nc1cccnc1

$$$$

  CDD

  0  0  0  0  0  0            999 V2000
M  END
> <Molecule Name>
CVD-0007934

> <SMILES>
NS(=O)(=O)c1ccc(Nc2ccnc(Nc3cncnc3)n2)cc1

$$$$

  CDD

  0  0  0  0  0  0            999 V2000
M  END
> <Molecule Name>
CVD-0007933

> <SMILES>
CCC1(C(=O)NC(=O)N(C1=O)c1cncnc1)c1ccc(O)cc1

$$$$

  CDD

  0  0  0  0  0  0            999 V2000
M  END
> <Molecule Name>
CVD-0007932

> <SMILES>
OC(=O)CN(Cc1cc(ccc1O)C(O)=O)c1cncnc1

$$$$

  CDD

  0  0  0  0  0  0            999 V2000
M  END
> <Molecule Name>
CVD-0007931

> <SMILES>
OCC(O)C(O)C(O)C(O)CNc1cncnc1

$$$$

  CDD

  0  0  0  0  0  0            999 V2000
M  END
> <Molecule Name>
CVD-0007930

> <SMILES>
Cn1cnc2n(-c3cncnc3)c(=O)n(C)c(=O)c12

$$$$

  CDD

  0  0  0  0  0  0            999 V2000
M  END
> <Molecule Name>
CVD-0007929

> <SMILES>
ON(Cc1cccnc1)c1cncnc1

$$$$

  CDD

  0  0  0  0  0  0            999 V2000
M  END
> <Molecule Name>
CVD-0007928

> <SMILES>
CCC1(C(=O)NC(=O)N(C1=O)c1cncnc1)c1ccc(C)cc1

$$$$

  CDD

  0  0  0  0  0  0            999 V2000
M  END
> <Molecule Name>
CVD-0007927

> <SMILES>
NCC(=O)CNc1cncnc1

$$$$

  CDD

  0  0  0  0  0  0            999 V2000
M  END
> <Molecule Name>
CVD-0007926

> <SMILES>
CC(O)C(Nc1cncnc1)C(O)=O

$$$$

  CDD

  0  0  0  0  0  0            999 V2000
M  END
> <Molecule Name>
CVD-0007925

> <SMILES>
COc1ccc(CC(Nc2cncnc2)C(O)=O)cc1

$$$$

  CDD

  0  0  0  0  0  0            999 V2000
M  END
> <Molecule Name>
CVD-0007924

> <SMILES>
COC1OC(CNc2cncnc2)(OC)C=C1

$$$$

  CDD

  0  0  0  0  0  0            999 V2000
M  END
> <Molecule Name>
CVD-0007923

> <SMILES>
OC1COC(C(O)C1O)N(C1OCC(O)C(O)C1O)c1cncnc1

$$$$

  CDD

  0  0  0  0  0  0            999 V2000
M  END
> <Molecule Name>
CVD-0007922

> <SMILES>
NC(=O)NCC(Nc1cncnc1)C(O)=O

$$$$

  CDD

  0  0  0  0  0  0            999 V2000
M  END
> <Molecule Name>
CVD-0007921

> <SMILES>
O=C1NC(=O)C(=O)N1c1cncnc1

$$$$

  CDD

  0  0  0  0  0  0            999 V2000
M  END
> <Molecule Name>
CVD-0007920

> <SMILES>
OC1CC(N(C1)c1cncnc1)C(O)=O

$$$$

  CDD

  0  0  0  0  0  0            999 V2000
M  END
> <Molecule Name>
CVD-0007919

> <SMILES>
NC(CCC(O)CNc1cncnc1)C(O)=O

$$$$

  CDD

  0  0  0  0  0  0            999 V2000
M  END
> <Molecule Name>
CVD-0007918

> <SMILES>
CCOC(=O)C(N(O)c1cncnc1)c1csc(N)n1

$$$$

  CDD

  0  0  0  0  0  0            999 V2000
M  END
> <Molecule Name>
CVD-0007917

> <SMILES>
OCC(CO)Nc1cncnc1

$$$$

  CDD

  0  0  0  0  0  0            999 V2000
M  END
> <Molecule Name>
CVD-0007916

> <SMILES>
CC1C(=O)N(C(=O)C1(C)C)c1cncnc1

$$$$

  CDD

  0  0  0  0  0  0            999 V2000
M  END
> <Molecule Name>
CVD-0007915

> <SMILES>
OC(=O)CN(CC(O)=O)c1cncnc1

$$$$

  CDD

  0  0  0  0  0  0            999 V2000
M  END
> <Molecule Name>
CVD-0007914

> <SMILES>
Oc1cccc(c1)C1(N(C(=O)NC1=O)c1cncnc1)c1ccccc1

$$$$

  CDD

  0  0  0  0  0  0            999 V2000
M  END
> <Molecule Name>
CVD-0007913

> <SMILES>
ON(Cc1ccncc1)c1cncnc1

$$$$

  CDD

  0  0  0  0  0  0            999 V2000
M  END
> <Molecule Name>
CVD-0007912

> <SMILES>
OC(=O)C(Cc1ccc(O)c(I)c1)Nc1cncnc1

$$$$

  CDD

  0  0  0  0  0  0            999 V2000
M  END
> <Molecule Name>
CVD-0007911

> <SMILES>
CC(=O)N(CC(O)=O)c1cncnc1

$$$$

  CDD

  0  0  0  0  0  0            999 V2000
M  END
> <Molecule Name>
CVD-0007910

> <SMILES>
CC1(C)CC(C(=O)Nc2cncnc2)C(C)(C)N1O

$$$$

  CDD

  0  0  0  0  0  0            999 V2000
M  END
> <Molecule Name>
CVD-0007909

> <SMILES>
ON(C(C#N)c1ccccc1)c1cncnc1

$$$$

  CDD

  0  0  0  0  0  0            999 V2000
M  END
> <Molecule Name>
CVD-0007908

> <SMILES>
Nc1ccc(CC(Nc2cncnc2)C(O)=O)cc1

$$$$

  CDD

  0  0  0  0  0  0            999 V2000
M  END
> <Molecule Name>
CVD-0007907

> <SMILES>
NC(=O)CC(Nc1cncnc1)C(O)=O

$$$$

  CDD

  0  0  0  0  0  0            999 V2000
M  END
> <Molecule Name>
CVD-0007906

> <SMILES>
CN1CC(=O)N(C1=O)c1cncnc1

$$$$

  CDD

  0  0  0  0  0  0            999 V2000
M  END
> <Molecule Name>
CVD-0007905

> <SMILES>
NC(=O)NC(NC(=O)Nc1cncnc1)C(O)=O

$$$$

  CDD

  0  0  0  0  0  0            999 V2000
M  END
> <Molecule Name>
CVD-0007904

> <SMILES>
OC(=O)C(Cc1ccc(O)cc1)Nc1cncnc1

$$$$

  CDD

  0  0  0  0  0  0            999 V2000
M  END
> <Molecule Name>
CVD-0007903

> <SMILES>
CCC(C)C(N(C(=O)Cc1c[nH]c2ccccc12)c1cncnc1)C(O)=O

$$$$

  CDD

  0  0  0  0  0  0            999 V2000
M  END
> <Molecule Name>
CVD-0007902

> <SMILES>
CC(N(C(=O)Cc1c[nH]c2ccccc12)c1cncnc1)C(O)=O

$$$$

  CDD

  0  0  0  0  0  0            999 V2000
M  END
> <Molecule Name>
CVD-0007901

> <SMILES>
Cc1cc(no1)N(c1cncnc1)S(=O)(=O)c1ccc(N)cc1

$$$$

  CDD

  0  0  0  0  0  0            999 V2000
M  END
> <Molecule Name>
CVD-0007900

> <SMILES>
Cc1ccc(cc1)S(=O)(=O)N(C(Cc1ccccc1)C(=O)CCl)c1cncnc1

$$$$

  CDD

  0  0  0  0  0  0            999 V2000
M  END
> <Molecule Name>
CVD-0007899

> <SMILES>
CN(C(CC(O)=O)C(O)=O)c1cncnc1

$$$$

  CDD

  0  0  0  0  0  0            999 V2000
M  END
> <Molecule Name>
CVD-0007898

> <SMILES>
OC(=O)C(Cc1c[nH]c2cc(F)ccc12)Nc1cncnc1

$$$$

  CDD

  0  0  0  0  0  0            999 V2000
M  END
> <Molecule Name>
CVD-0007897

> <SMILES>
O=C1N(c2cncnc2)S(=O)(=O)c2ccccc12

$$$$

  CDD

  0  0  0  0  0  0            999 V2000
M  END
> <Molecule Name>
CVD-0007896

> <SMILES>
O=C1C2CC=CCC2C(=O)N1c1cncnc1

$$$$

  CDD

  0  0  0  0  0  0            999 V2000
M  END
> <Molecule Name>
CVD-0007895

> <SMILES>
OC(=O)CNC(=O)CNc1cncnc1

$$$$

  CDD

  0  0  0  0  0  0            999 V2000
M  END
> <Molecule Name>
CVD-0007894

> <SMILES>
OC(=O)C(Cc1c[nH]c2ccc(F)cc12)Nc1cncnc1

$$$$

  CDD

  0  0  0  0  0  0            999 V2000
M  END
> <Molecule Name>
CVD-0007893

> <SMILES>
Cc1ccc(cc1)S(=O)(=O)N(C(Cc1ccccc1)C(O)=O)c1cncnc1

$$$$

  CDD

  0  0  0  0  0  0            999 V2000
M  END
> <Molecule Name>
CVD-0007892

> <SMILES>
COC(=O)C1CCC(=O)N1c1cncnc1

$$$$

  CDD

  0  0  0  0  0  0            999 V2000
M  END
> <Molecule Name>
CVD-0007891

> <SMILES>
OC(=O)CC(Nc1cncnc1)C(O)=O

$$$$

  CDD

  0  0  0  0  0  0            999 V2000
M  END
> <Molecule Name>
CVD-0007890

> <SMILES>
CCCC(C(=O)Nc1cncnc1)c1ccc(O)c(O)c1

$$$$

  CDD

  0  0  0  0  0  0            999 V2000
M  END
> <Molecule Name>
CVD-0007889

> <SMILES>
CCOC(=O)CN(C(C)=O)c1cncnc1

$$$$

  CDD

  0  0  0  0  0  0            999 V2000
M  END
> <Molecule Name>
CVD-0007888

> <SMILES>
OCC1CCC(O1)n1cnc2c(Nc3cncnc3)ncnc12

$$$$

  CDD

  0  0  0  0  0  0            999 V2000
M  END
> <Molecule Name>
CVD-0007887

> <SMILES>
CC(C)C(N(C(=O)Cc1c[nH]c2ccccc12)c1cncnc1)C(O)=O

$$$$

  CDD

  0  0  0  0  0  0            999 V2000
M  END
> <Molecule Name>
CVD-0007886

> <SMILES>
CC(C(C#N)C(N)=O)C(C#N)C(=O)Nc1cncnc1

$$$$

  CDD

  0  0  0  0  0  0            999 V2000
M  END
> <Molecule Name>
CVD-0007885

> <SMILES>
COC(=O)C(Cc1ccc(O)cc1)Nc1cncnc1

$$$$

  CDD

  0  0  0  0  0  0            999 V2000
M  END
> <Molecule Name>
CVD-0007884

> <SMILES>
Cc1cn(C2CC(O)C(CO)O2)c(=O)nc1Nc1cncnc1

$$$$

  CDD

  0  0  0  0  0  0            999 V2000
M  END
> <Molecule Name>
CVD-0007883

> <SMILES>
OC(C(Nc1cncnc1)C(O)=O)c1ccccc1

$$$$

  CDD

  0  0  0  0  0  0            999 V2000
M  END
> <Molecule Name>
CVD-0007882

> <SMILES>
Fc1cn(C2CCCO2)c(=O)n(-c2cncnc2)c1=O

$$$$

  CDD

  0  0  0  0  0  0            999 V2000
M  END
> <Molecule Name>
CVD-0007881

> <SMILES>
Oc1cc(CCNc2cncnc2)cc(O)c1O

$$$$

  CDD

  0  0  0  0  0  0            999 V2000
M  END
> <Molecule Name>
CVD-0007880

> <SMILES>
OC(=O)C(Cc1ccc(O)c(O)c1)Nc1cncnc1

$$$$

  CDD

  0  0  0  0  0  0            999 V2000
M  END
> <Molecule Name>
CVD-0007879

> <SMILES>
OC(=O)C(Cc1c[nH]c2ccc(O)cc12)Nc1cncnc1

$$$$

  CDD

  0  0  0  0  0  0            999 V2000
M  END
> <Molecule Name>
CVD-0007878

> <SMILES>
OC1C(CI)OC(C1O)n1cnc2c(Nc3cncnc3)ncnc12

$$$$

  CDD

  0  0  0  0  0  0            999 V2000
M  END
> <Molecule Name>
CVD-0007877

> <SMILES>
CC1(C)OC(=O)N(C1=O)c1cncnc1

$$$$

  CDD

  0  0  0  0  0  0            999 V2000
M  END
> <Molecule Name>
CVD-0007876

> <SMILES>
Nc1cc(CC(Nc2cncnc2)C(O)=O)ccc1O

$$$$

  CDD

  0  0  0  0  0  0            999 V2000
M  END
> <Molecule Name>
CVD-0007875

> <SMILES>
CSCCC(N(C(C)=O)c1cncnc1)C(O)=O

$$$$

  CDD

  0  0  0  0  0  0            999 V2000
M  END
> <Molecule Name>
CVD-0007874

> <SMILES>
OC(=O)C(Cc1ccc(O)c(F)c1)Nc1cncnc1

$$$$

  CDD

  0  0  0  0  0  0            999 V2000
M  END
> <Molecule Name>
CVD-0007873

> <SMILES>
OC(=O)C(Nc1cncnc1)c1ccc(O)cc1

$$$$

  CDD

  0  0  0  0  0  0            999 V2000
M  END
> <Molecule Name>
CVD-0007872

> <SMILES>
Cc1ccc2[nH]cc(CC(Nc3cncnc3)C(O)=O)c2c1

$$$$

  CDD

  0  0  0  0  0  0            999 V2000
M  END
> <Molecule Name>
CVD-0007871

> <SMILES>
CCOC(=O)CC(Nc1cncnc1)C(C#N)C#N

$$$$

  CDD

  0  0  0  0  0  0            999 V2000
M  END
> <Molecule Name>
CVD-0007870

> <SMILES>
Oc1ccc(cc1)C1(N(C(=O)NC1=O)c1cncnc1)c1ccccc1

$$$$

  CDD

  0  0  0  0  0  0            999 V2000
M  END
> <Molecule Name>
CVD-0007869

> <SMILES>
CCOC(=O)C(C#N)N(O)c1cncnc1

$$$$

  CDD

  0  0  0  0  0  0            999 V2000
M  END
> <Molecule Name>
CVD-0007868

> <SMILES>
OC(C(Nc1cncnc1)C(O)=O)c1ccc(O)c(O)c1

$$$$

  CDD

  0  0  0  0  0  0            999 V2000
M  END
> <Molecule Name>
CVD-0007867

> <SMILES>
CN(C(Cc1c[nH]c2ccccc12)C(O)=O)c1cncnc1

$$$$

  CDD

  0  0  0  0  0  0            999 V2000
M  END
> <Molecule Name>
CVD-0007866

> <SMILES>
Cc1cn(C2OC(CO)C(O)C2O)c(=O)nc1Nc1cncnc1

$$$$

  CDD

  0  0  0  0  0  0            999 V2000
M  END
> <Molecule Name>
CVD-0007865

> <SMILES>
OCC1OC(CC1O)n1cnc2c1nc(Nc1cncnc1)[nH]c2=O

$$$$

  CDD

  0  0  0  0  0  0            999 V2000
M  END
> <Molecule Name>
CVD-0007864

> <SMILES>
O=c1[nH]c2[nH]cnc2c(=O)n1-c1cncnc1

$$$$

  CDD

  0  0  0  0  0  0            999 V2000
M  END
> <Molecule Name>
CVD-0007863

> <SMILES>
OC(=O)C(Cc1cc(O)c(O)cc1O)Nc1cncnc1

$$$$

  CDD

  0  0  0  0  0  0            999 V2000
M  END
> <Molecule Name>
CVD-0007862

> <SMILES>
CC1OC(CC1O)n1cc(C)c(=O)n(-c2cncnc2)c1=O

$$$$

  CDD

  0  0  0  0  0  0            999 V2000
M  END
> <Molecule Name>
CVD-0007861

> <SMILES>
O=C1N(C(=O)c2cnccc12)c1cncnc1

$$$$

  CDD

  0  0  0  0  0  0            999 V2000
M  END
> <Molecule Name>
CVD-0007860

> <SMILES>
O=C1NC(=S)NC(=O)C1CCCCCC1C(=O)NC(=S)N(C1=O)c1cncnc1

$$$$

  CDD

  0  0  0  0  0  0            999 V2000
M  END
> <Molecule Name>
CVD-0007859

> <SMILES>
CC(O)C(O)c1cn(-c2cncnc2)c-2nc(N)nc(=O)c-2n1

$$$$

  CDD

  0  0  0  0  0  0            999 V2000
M  END
> <Molecule Name>
CVD-0007858

> <SMILES>
OCC1OC(CC1O)n1ccc(Nc2cncnc2)nc1=O

$$$$

  CDD

  0  0  0  0  0  0            999 V2000
M  END
> <Molecule Name>
CVD-0007857

> <SMILES>
Cc1cn(C2CCC(CO)O2)c(=O)n(-c2cncnc2)c1=O

$$$$

  CDD

  0  0  0  0  0  0            999 V2000
M  END
> <Molecule Name>
CVD-0007856

> <SMILES>
OC(=O)CN(CC(O)=O)CC(=O)Nc1cncnc1

$$$$

  CDD

  0  0  0  0  0  0            999 V2000
M  END
> <Molecule Name>
CVD-0007855

> <SMILES>
OCC1OC(C(O)C1O)n1ccc(=S)n(-c2cncnc2)c1=O

$$$$

  CDD

  0  0  0  0  0  0            999 V2000
M  END
> <Molecule Name>
CVD-0007854

> <SMILES>
COc1ccc2[nH]cc(CC(Nc3cncnc3)C(O)=O)c2c1

$$$$

  CDD

  0  0  0  0  0  0            999 V2000
M  END
> <Molecule Name>
CVD-0007853

> <SMILES>
OCC1CCC(O1)n1cc(F)c(=O)n(-c2cncnc2)c1=O

$$$$

  CDD

  0  0  0  0  0  0            999 V2000
M  END
> <Molecule Name>
CVD-0007852

> <SMILES>
OCC1CCC(O1)n1cc(I)c(=O)n(-c2cncnc2)c1=O

$$$$

  CDD

  0  0  0  0  0  0            999 V2000
M  END
> <Molecule Name>
CVD-0007851

> <SMILES>
OCC1OC(C(O)C1O)n1ccc(Nc2cncnc2)nc1=O

$$$$

  CDD

  0  0  0  0  0  0            999 V2000
M  END
> <Molecule Name>
CVD-0007850

> <SMILES>
OCC1OC(C(O)C1O)n1ccc(Nc2cncnc2)nc1=S

$$$$

  CDD

  0  0  0  0  0  0            999 V2000
M  END
> <Molecule Name>
CVD-0007849

> <SMILES>
Cc1cn(C2CC(O)C(CO)O2)c(=O)n(-c2cncnc2)c1=O

$$$$

  CDD

  0  0  0  0  0  0            999 V2000
M  END
> <Molecule Name>
CVD-0007848

> <SMILES>
OCC1OC(C(O)C1O)n1cnc(Nc2cncnc2)nc1=O

$$$$

  CDD

  0  0  0  0  0  0            999 V2000
M  END
> <Molecule Name>
CVD-0007847

> <SMILES>
OCC1CCC(O1)n1cc(Br)c(=O)n(-c2cncnc2)c1=O

$$$$

  CDD

  0  0  0  0  0  0            999 V2000
M  END
> <Molecule Name>
CVD-0007846

> <SMILES>
COc1ccc2[nH]cc(CCN(C(C)=O)c3cncnc3)c2c1

$$$$

  CDD

  0  0  0  0  0  0            999 V2000
M  END
> <Molecule Name>
CVD-0007845

> <SMILES>
Cc1cn(C2CC(F)C(CO)O2)c(=O)n(-c2cncnc2)c1=O

$$$$

  CDD

  0  0  0  0  0  0            999 V2000
M  END
> <Molecule Name>
CVD-0007844

> <SMILES>
CC(=O)N(CCc1c[nH]c2ccc(O)cc12)c1cncnc1

$$$$

  CDD

  0  0  0  0  0  0            999 V2000
M  END
> <Molecule Name>
CVD-0007843

> <SMILES>
OCC1OC(CC1O)n1cc(F)c(=O)n(-c2cncnc2)c1=O

$$$$

  CDD

  0  0  0  0  0  0            999 V2000
M  END
> <Molecule Name>
CVD-0007842

> <SMILES>
OCC1OC(C(O)C1O)n1cc(F)c(=O)n(-c2cncnc2)c1=O

$$$$

  CDD

  0  0  0  0  0  0            999 V2000
M  END
> <Molecule Name>
CVD-0007841

> <SMILES>
OCC1OC(CC1O)n1cc(I)c(=O)n(-c2cncnc2)c1=O

$$$$

  CDD

  0  0  0  0  0  0            999 V2000
M  END
> <Molecule Name>
CVD-0007840

> <SMILES>
Cc1cn(C2OC(CO)C(O)C2O)c(=O)n(-c2cncnc2)c1=O

$$$$

  CDD

  0  0  0  0  0  0            999 V2000
M  END
> <Molecule Name>
CVD-0007839

> <SMILES>
OCC1OC(CC1O)n1cc(Cl)c(=O)n(-c2cncnc2)c1=O

$$$$

  CDD

  0  0  0  0  0  0            999 V2000
M  END
> <Molecule Name>
CVD-0007838

> <SMILES>
OCC1OC(CC1O)n1cc(Br)c(=O)n(-c2cncnc2)c1=O

$$$$

  CDD

  0  0  0  0  0  0            999 V2000
M  END
> <Molecule Name>
CVD-0007837

> <SMILES>
OCC1OC(C(O)C1O)n1cc(I)c(=O)n(-c2cncnc2)c1=O

$$$$

  CDD

  0  0  0  0  0  0            999 V2000
M  END
> <Molecule Name>
CVD-0007836

> <SMILES>
OCC1OC(C(O)C1O)n1cc(Br)c(=O)n(-c2cncnc2)c1=O

$$$$

  CDD

  0  0  0  0  0  0            999 V2000
M  END
> <Molecule Name>
CVD-0007835

> <SMILES>
OCC1OC(CC1O)n1cnc2c(Nc3cncnc3)ncnc12

$$$$

  CDD

  0  0  0  0  0  0            999 V2000
M  END
> <Molecule Name>
CVD-0007834

$$$$

  CDD

  0  0  0  0  0  0            999 V2000
M  END
> <Molecule Name>
CVD-0007833

> <SMILES>
O=C(Nc1nncn1C1CCCC1)C1CCOc2ccccc12

$$$$

  CDD

  0  0  0  0  0  0            999 V2000
M  END
> <Molecule Name>
CVD-0007832

> <SMILES>
O=C(Nc1nncn1C1CC1)C1CCOc2ccc(cc12)C#N

$$$$

  CDD

  0  0  0  0  0  0            999 V2000
M  END
> <Molecule Name>
CVD-0007831

> <SMILES>
CN(C(=O)C1CCOc2ccccc12)c1nncn1C1CC1

$$$$

  CDD

  0  0  0  0  0  0            999 V2000
M  END
> <Molecule Name>
CVD-0007830

> <SMILES>
O=C(Nc1nccn1C1CC1)C1CCOc2ccccc12

$$$$

  CDD

  0  0  0  0  0  0            999 V2000
M  END
> <Molecule Name>
CVD-0007829

> <SMILES>
OCc1ccncc1NC(=O)C1CCOc2ccc(Cl)cc12

$$$$

  CDD

  0  0  0  0  0  0            999 V2000
M  END
> <Molecule Name>
CVD-0007828

> <SMILES>
CC(C)c1scnc1NC(=O)C1CCOc2ccc(Cl)cc12

$$$$

  CDD

  0  0  0  0  0  0            999 V2000
M  END
> <Molecule Name>
CVD-0007827

> <SMILES>
CN(C(=O)C1CCOc2ccc(Cl)cc12)c1ccc(Cl)cn1

$$$$

  CDD

  0  0  0  0  0  0            999 V2000
M  END
> <Molecule Name>
CVD-0007826

> <SMILES>
Cc1nnc(CNC(=O)C2CCOc3ccc(Cl)cc23)n1C1CC1

$$$$

  CDD

  0  0  0  0  0  0            999 V2000
M  END
> <Molecule Name>
CVD-0007825

> <SMILES>
Fc1ccc2nc(NC(=O)C3CCOc4ccc(Cl)cc34)nn2c1

$$$$

  CDD

  0  0  0  0  0  0            999 V2000
M  END
> <Molecule Name>
CVD-0007824

> <SMILES>
COc1ncccc1N(C)C(=O)C1CCOc2ccc(Cl)cc12

$$$$

  CDD

  0  0  0  0  0  0            999 V2000
M  END
> <Molecule Name>
CVD-0007823

> <SMILES>
CN(C)c1ncccc1N(C)C(=O)C1CCOc2ccc(Cl)cc12

$$$$

  CDD

  0  0  0  0  0  0            999 V2000
M  END
> <Molecule Name>
CVD-0007822

> <SMILES>
Clc1ccc2OCC[C@@](NC(=O)C=C)(C(=O)Nc3nncn3C3CC3)c2c1

$$$$

  CDD

  0  0  0  0  0  0            999 V2000
M  END
> <Molecule Name>
CVD-0007821

> <SMILES>
CC#CC(=O)N(C(=O)[C@@H]1CCOc2ccc(Cl)cc12)c1nncn1C1CC1

$$$$

  CDD

  0  0  0  0  0  0            999 V2000
M  END
> <Molecule Name>
CVD-0007820

> <SMILES>
Clc1ccc2OCC[C@@H](C(=O)N(C(=O)C=C)c3nncn3C3CC3)c2c1

$$$$

  CDD

  0  0  0  0  0  0            999 V2000
M  END
> <Molecule Name>
CVD-0007819

> <SMILES>
C[C@@H]1CC[C@H](N2C1CC[C@@]1(CS[C@]3(C1)CC[C@H]1[C@H](C)CC[C@H](N1[C@@H]3O)c1ccoc1)[C@@H]2O)c1ccoc1

$$$$

  CDD

  0  0  0  0  0  0            999 V2000
M  END
> <Molecule Name>
CVD-0007818

> <SMILES>
OCC(O)COC(=O)c1ccccc1Nc1ccnc2cc(Cl)ccc12

$$$$

  CDD

  0  0  0  0  0  0            999 V2000
M  END
> <Molecule Name>
CVD-0007817

> <SMILES>
NC(=O)C[S@@+]([O-])C(c1ccccc1)c1ccccc1

$$$$

  CDD

  0  0  0  0  0  0            999 V2000
M  END
> <Molecule Name>
CVD-0007816

> <SMILES>
CCn1c2nc(N)nc(C)c2cc(-c2cc[nH]n2)c1=O

$$$$

  CDD

  0  0  0  0  0  0            999 V2000
M  END
> <Molecule Name>
CVD-0007815

> <SMILES>
Cc1cc(Cn2nnc3c(nc(N)nc23)-c2ccco2)ccc1N

$$$$

  CDD

  0  0  0  0  0  0            999 V2000
M  END
> <Molecule Name>
CVD-0007814

> <SMILES>
OC(=O)CNC(=O)c1ncc(cc1O)-c1cccc(Cl)c1

$$$$

  CDD

  0  0  0  0  0  0            999 V2000
M  END
> <Molecule Name>
CVD-0007813

> <SMILES>
CC1(C)CN(C1)C(=O)c1ccc(cc1)-c1cccc2nc(NC(=O)C3CC3)nn12

$$$$

  CDD

  0  0  0  0  0  0            999 V2000
M  END
> <Molecule Name>
CVD-0007812

> <SMILES>
CN(C)C(=O)c1cc2cnc(Nc3ccc(cn3)N3CCNCC3)nc2n1C1CCCC1

$$$$

  CDD

  0  0  0  0  0  0            999 V2000
M  END
> <Molecule Name>
CVD-0007811

> <SMILES>
OC(=O)[C@H](Cc1cc(=O)[nH]c2ccccc12)NC(=O)c1ccc(Cl)cc1

$$$$

  CDD

  0  0  0  0  0  0            999 V2000
M  END
> <Molecule Name>
CVD-0007810

> <SMILES>
CC(C)CCC(=O)C[C@@H]1N(C(=O)c2ccccc12)c1ccc2ccc(Cl)nc2n1

$$$$

  CDD

  0  0  0  0  0  0            999 V2000
M  END
> <Molecule Name>
CVD-0007809

> <SMILES>
O[C@H]1CCN(C1)C(=O)Nc1cnn2ccc(nc12)N1CCC[C@@H]1c1cc(F)ccc1F

$$$$

  CDD

  0  0  0  0  0  0            999 V2000
M  END
> <Molecule Name>
CVD-0007808

> <SMILES>
COc1cc(OC)nc(O[C@H](C(O)=O)C(OC)(c2ccccc2)c2ccccc2)n1

$$$$

  CDD

  0  0  0  0  0  0            999 V2000
M  END
> <Molecule Name>
CVD-0007807

> <SMILES>
C[C@@H](Cn1ccc(n1)-c1ccc(C#N)c(Cl)c1)NC(=O)c1cc([nH]n1)[C@@H](C)O

$$$$

  CDD

  0  0  0  0  0  0            999 V2000
M  END
> <Molecule Name>
CVD-0007806

> <SMILES>
C[C@@H]1COCCN1c1cc(nc(n1)-c1cncc2[nH]ccc12)C1(CC1)[S@](C)(=N)=O

$$$$

  CDD

  0  0  0  0  0  0            999 V2000
M  END
> <Molecule Name>
CVD-0007805

> <SMILES>
Nc1cc(c(cn1)-c1nc(nc(n1)N1CCOCC1)N1CCOCC1)C(F)(F)F

$$$$

  CDD

  0  0  0  0  0  0            999 V2000
M  END
> <Molecule Name>
CVD-0007804

> <SMILES>
COc1ccc(NC(=O)c2ccc(cc2)C(=N)N(C)C)c(c1)C(=O)Nc1ccc(Cl)cn1

$$$$

  CDD

  0  0  0  0  0  0            999 V2000
M  END
> <Molecule Name>
CVD-0007803

> <SMILES>
[O-][N+](=O)c1nccn1CC(=O)NCc1ccccc1

$$$$

  CDD

  0  0  0  0  0  0            999 V2000
M  END
> <Molecule Name>
CVD-0007802

> <SMILES>
Fc1ccccc1N1CCN(CC1)C(=O)CCl

$$$$

  CDD

  0  0  0  0  0  0            999 V2000
M  END
> <Molecule Name>
CVD-0007801

> <SMILES>
ClCC(=O)N1CCN(CC1)C(=O)C1CC1

$$$$

  CDD

  0  0  0  0  0  0            999 V2000
M  END
> <Molecule Name>
CVD-0007800

> <SMILES>
ClCC(=O)N1CCN(CC1)c1ncc(Cl)cc1Cl

$$$$

  CDD

  0  0  0  0  0  0            999 V2000
M  END
> <Molecule Name>
CVD-0007799

> <SMILES>
NS(=O)(=O)c1ccc2N(CCc2c1)C(=O)CCl

$$$$

  CDD

  0  0  0  0  0  0            999 V2000
M  END
> <Molecule Name>
CVD-0007798

> <SMILES>
ClCC(=O)N1CCN(CC1)C1CCS(=O)(=O)C1

$$$$

  CDD

  0  0  0  0  0  0            999 V2000
M  END
> <Molecule Name>
CVD-0007797

> <SMILES>
COc1ccc(CN2CCN(CC2)C(=O)CCl)cc1F

$$$$

  CDD

  0  0  0  0  0  0            999 V2000
M  END
> <Molecule Name>
CVD-0007796

> <SMILES>
Cc1cccc(c1)N1CCN(CC1)C(=O)CCl

$$$$

  CDD

  0  0  0  0  0  0            999 V2000
M  END
> <Molecule Name>
CVD-0007795

> <SMILES>
ClCC(=O)N1CCN(CC1)c1ccccn1

$$$$

  CDD

  0  0  0  0  0  0            999 V2000
M  END
> <Molecule Name>
CVD-0007794

> <SMILES>
Cc1nc(CN2CCN(CC2)C(=O)CCl)cs1

$$$$

  CDD

  0  0  0  0  0  0            999 V2000
M  END
> <Molecule Name>
CVD-0007793

> <SMILES>
ClCC(=O)N1CCN(CC1)c1cnccn1

$$$$

  CDD

  0  0  0  0  0  0            999 V2000
M  END
> <Molecule Name>
CVD-0007792

> <SMILES>
Clc1cc(OC2CC(=O)N2)c2OCCC(C(=O)Nc3nncn3C3CC3)c2c1

$$$$

  CDD

  0  0  0  0  0  0            999 V2000
M  END
> <Molecule Name>
CVD-0007791

> <SMILES>
CC(C)n1ncnc1NC(=O)C1CCOc2ccc(Cl)cc12

$$$$

  CDD

  0  0  0  0  0  0            999 V2000
M  END
> <Molecule Name>
CVD-0007790

> <SMILES>
Clc1ccc2OCCC(C(=O)Nc3ncn(n3)C3CC3)c2c1

$$$$

  CDD

  0  0  0  0  0  0            999 V2000
M  END
> <Molecule Name>
CVD-0007789

> <SMILES>
Clc1ccc2OCCC(C(=O)Nc3cnc4COCCn34)c2c1

$$$$

  CDD

  0  0  0  0  0  0            999 V2000
M  END
> <Molecule Name>
CVD-0007788

> <SMILES>
COCc1n[nH]c(NC(=O)C2CCOc3ccc(Cl)cc23)n1

$$$$

  CDD

  0  0  0  0  0  0            999 V2000
M  END
> <Molecule Name>
CVD-0007787

> <SMILES>
Clc1ccc2OCCC(C(=O)Nc3n[nH]c(n3)C3CC3)c2c1

$$$$

  CDD

  0  0  0  0  0  0            999 V2000
M  END
> <Molecule Name>
CVD-0007786

> <SMILES>
Clc1ccc2OCCC(C(=O)Nc3nccn3C3CC3)c2c1

$$$$

  CDD

  0  0  0  0  0  0            999 V2000
M  END
> <Molecule Name>
CVD-0007785

> <SMILES>
CN1C(=O)CN=C1NC(=O)C1CCOc2ccc(Cl)cc12

$$$$

  CDD

  0  0  0  0  0  0            999 V2000
M  END
> <Molecule Name>
CVD-0007784

> <SMILES>
CC(C)n1cnnc1CNC(=O)C1CCOc2ccccc12

$$$$

  CDD

  0  0  0  0  0  0            999 V2000
M  END
> <Molecule Name>
CVD-0007783

> <SMILES>
O=C(Nc1nncn1C1CC1)C1CCS(=O)(=O)c2ccccc12

$$$$

  CDD

  0  0  0  0  0  0            999 V2000
M  END
> <Molecule Name>
CVD-0007782

> <SMILES>
Cc1ccn2cnnc2c1NC(=O)C1CCOc2ccccc12

$$$$

  CDD

  0  0  0  0  0  0            999 V2000
M  END
> <Molecule Name>
CVD-0007781

> <SMILES>
Clc1ccc2OCC(C(=O)Nc3nncn3-c3ccccc3)c2c1

$$$$

  CDD

  0  0  0  0  0  0            999 V2000
M  END
> <Molecule Name>
CVD-0007780

> <SMILES>
CC1(C)CC(C(=O)Nc2nncn2C2CC2)c2ccccc2O1

$$$$

  CDD

  0  0  0  0  0  0            999 V2000
M  END
> <Molecule Name>
CVD-0007779

> <SMILES>
O=C(Nc1nncn1C1CC1)C1c2ccccc2Oc2ccccc12

$$$$

  CDD

  0  0  0  0  0  0            999 V2000
M  END
> <Molecule Name>
CVD-0007778

> <SMILES>
Clc1ccc2OCC(Cc2c1)C(=O)Nc1nncn1C1CC1

$$$$

  CDD

  0  0  0  0  0  0            999 V2000
M  END
> <Molecule Name>
CVD-0007777

> <SMILES>
Clc1ccc2OCC(C(=O)Nc3nncn3C3CC3)c2c1

$$$$

  CDD

  0  0  0  0  0  0            999 V2000
M  END
> <Molecule Name>
CVD-0007776

> <SMILES>
CC(C)n1c(NC(=O)C2CCOc3ccccc23)nc2ccccc12

$$$$

  CDD

  0  0  0  0  0  0            999 V2000
M  END
> <Molecule Name>
CVD-0007775

> <SMILES>
NS(=O)(=O)c1cc(Cl)cc(CN2CC3CC2CN3C(=O)CCl)c1

$$$$

  CDD

  0  0  0  0  0  0            999 V2000
M  END
> <Molecule Name>
CVD-0007774

> <SMILES>
Oc1cc(F)cc(CN2CC3CC2CN3C(=O)CCl)c1

$$$$

  CDD

  0  0  0  0  0  0            999 V2000
M  END
> <Molecule Name>
CVD-0007773

> <SMILES>
Oc1cc(Cl)cc(CN2CCN(CC2)C(=O)C=C)c1

$$$$

  CDD

  0  0  0  0  0  0            999 V2000
M  END
> <Molecule Name>
CVD-0007772

> <SMILES>
NS(=O)(=O)c1cc(Cl)cc(c1)C(=O)N1CCN(CC1)C(=O)CCl

$$$$

  CDD

  0  0  0  0  0  0            999 V2000
M  END
> <Molecule Name>
CVD-0007771

> <SMILES>
Oc1cc(Cl)cc(c1)C(=O)N1CCN(CC1)C(=O)CCl

$$$$

  CDD

  0  0  0  0  0  0            999 V2000
M  END
> <Molecule Name>
CVD-0007770

> <SMILES>
Cc1cc(CN2CCN(CC2)C(=O)CCl)cc(c1)S(N)(=O)=O

$$$$

  CDD

  0  0  0  0  0  0            999 V2000
M  END
> <Molecule Name>
CVD-0007769

> <SMILES>
NS(=O)(=O)c1cc(Cl)cc(CN2CCN(CC2)C(=O)CCl)c1

$$$$

  CDD

  0  0  0  0  0  0            999 V2000
M  END
> <Molecule Name>
CVD-0007768

> <SMILES>
Cc1cc(Cl)cc(CN2CCN(CC2)C(=O)CCl)c1

$$$$

  CDD

  0  0  0  0  0  0            999 V2000
M  END
> <Molecule Name>
CVD-0007767

> <SMILES>
Fc1cc(Cl)cc(CN2CCN(CC2)C(=O)CCl)c1

$$$$

  CDD

  0  0  0  0  0  0            999 V2000
M  END
> <Molecule Name>
CVD-0007766

> <SMILES>
COc1ccccc1CO[C@H](C(=O)Nc1cc(=O)[nH]c2ccccc12)c1cccc(Cl)c1

$$$$

  CDD

  0  0  0  0  0  0            999 V2000
M  END
> <Molecule Name>
CVD-0007765

> <SMILES>
COc1ccccc1CN[C@H](C(=O)Nc1cc(=O)[nH]c2ccccc12)c1cccc(Cl)c1

$$$$

  CDD

  0  0  0  0  0  0            999 V2000
M  END
> <Molecule Name>
CVD-0007764

> <SMILES>
COc1ccccc1OC[C@H](C(=O)Nc1cnccc1C)c1cccc(Cl)c1

$$$$

  CDD

  0  0  0  0  0  0            999 V2000
M  END
> <Molecule Name>
CVD-0007763

> <SMILES>
COc1ccccc1OC[C@H](C(=O)Nc1cc(=O)[nH]c2ccccc12)c1cccc(Cl)c1

$$$$

  CDD

  0  0  0  0  0  0            999 V2000
M  END
> <Molecule Name>
CVD-0007762

> <SMILES>
COc1ccccc1[C@@H]1CN(C(=O)N(C1)c1cnccc1C)c1cccc(Cl)c1

$$$$

  CDD

  0  0  0  0  0  0            999 V2000
M  END
> <Molecule Name>
CVD-0007761

> <SMILES>
Cc1ccncc1-c1cc(cn(-c2cccc(Cl)c2)c1=O)C#N

$$$$

  CDD

  0  0  0  0  0  0            999 V2000
M  END
> <Molecule Name>
CVD-0007760

> <SMILES>
Cc1ccncc1-n1cc(cc(-c2cccc(Cl)c2)c1=O)C#N

$$$$

  CDD

  0  0  0  0  0  0            999 V2000
M  END
> <Molecule Name>
CVD-0007759

> <SMILES>
Cc1ccncc1NC(=O)Cc1cccc2CCNCc12

$$$$

  CDD

  0  0  0  0  0  0            999 V2000
M  END
> <Molecule Name>
CVD-0007758

> <SMILES>
Cc1ccncc1CC(=O)Nc1cccc2CCNCc12

$$$$

  CDD

  0  0  0  0  0  0            999 V2000
M  END
> <Molecule Name>
CVD-0007757

> <SMILES>
Cc1ccncc1NC(=O)[C@@H]1CCc2ccc(Cl)cc12

$$$$

  CDD

  0  0  0  0  0  0            999 V2000
M  END
> <Molecule Name>
CVD-0007756

> <SMILES>
Clc1cccc(CC(=O)Nc2cncc3ccccc23)c1

$$$$

  CDD

  0  0  0  0  0  0            999 V2000
M  END
> <Molecule Name>
CVD-0007755

> <SMILES>
C(Cc1ccccc1)SSc1ncc[nH]1

$$$$

  CDD

  0  0  0  0  0  0            999 V2000
M  END
> <Molecule Name>
CVD-0007754

> <SMILES>
O=C(CSc1ccccn1)N(C1CCS(=O)(=O)C1)c1ncncn1

$$$$

  CDD

  0  0  0  0  0  0            999 V2000
M  END
> <Molecule Name>
CVD-0007753

> <SMILES>
O=C(CSc1ccccn1)N(C1CCS(=O)(=O)C1)c1cccnn1

$$$$

  CDD

  0  0  0  0  0  0            999 V2000
M  END
> <Molecule Name>
CVD-0007752

> <SMILES>
O=C(CSc1ccccn1)N(C1CCS(=O)(=O)C1)c1ccnnc1

$$$$

  CDD

  0  0  0  0  0  0            999 V2000
M  END
> <Molecule Name>
CVD-0007751

> <SMILES>
O=C(CSc1ccccn1)N(C1CCS(=O)(=O)C1)c1cnccn1

$$$$

  CDD

  0  0  0  0  0  0            999 V2000
M  END
> <Molecule Name>
CVD-0007750

> <SMILES>
O=C(CSc1ccccn1)N(C1CCS(=O)(=O)C1)c1ncccn1

$$$$

  CDD

  0  0  0  0  0  0            999 V2000
M  END
> <Molecule Name>
CVD-0007749

> <SMILES>
O=C(CSc1ccccn1)N(C1CCS(=O)(=O)C1)c1ccncn1

$$$$

  CDD

  0  0  0  0  0  0            999 V2000
M  END
> <Molecule Name>
CVD-0007748

> <SMILES>
O=C(CSc1ccccn1)N(C1CCS(=O)(=O)C1)c1cncnc1

$$$$

  CDD

  0  0  0  0  0  0            999 V2000
M  END
> <Molecule Name>
CVD-0007747

> <SMILES>
O=C(CSc1ccccn1)N(C1CCS(=O)(=O)C1)c1ncc[nH]c1=O

$$$$

  CDD

  0  0  0  0  0  0            999 V2000
M  END
> <Molecule Name>
CVD-0007746

> <SMILES>
O=C(CSc1ccccn1)N(C1CCS(=O)(=O)C1)n1ccncc1=O

$$$$

  CDD

  0  0  0  0  0  0            999 V2000
M  END
> <Molecule Name>
CVD-0007745

> <SMILES>
O=C(CSc1ccccn1)N(C1CCS(=O)(=O)C1)c1cncc(=O)[nH]1

$$$$

  CDD

  0  0  0  0  0  0            999 V2000
M  END
> <Molecule Name>
CVD-0007744

> <SMILES>
O=C(CSc1ccccn1)N(C1CCS(=O)(=O)C1)c1c[nH]c(=O)cn1

$$$$

  CDD

  0  0  0  0  0  0            999 V2000
M  END
> <Molecule Name>
CVD-0007743

> <SMILES>
O=C(CSc1ccccn1)N(C1CCS(=O)(=O)C1)n1cccnc1=O

$$$$

  CDD

  0  0  0  0  0  0            999 V2000
M  END
> <Molecule Name>
CVD-0007742

> <SMILES>
O=C(CSc1ccccn1)N(C1CCS(=O)(=O)C1)c1ccnc(=O)[nH]1

$$$$

  CDD

  0  0  0  0  0  0            999 V2000
M  END
> <Molecule Name>
CVD-0007741

> <SMILES>
O=C(CSc1ccccn1)N(C1CCS(=O)(=O)C1)c1cnc(=O)[nH]c1

$$$$

  CDD

  0  0  0  0  0  0            999 V2000
M  END
> <Molecule Name>
CVD-0007740

> <SMILES>
O=C(CSc1ccccn1)N(C1CCS(=O)(=O)C1)c1cc(=O)[nH]cn1

$$$$

  CDD

  0  0  0  0  0  0            999 V2000
M  END
> <Molecule Name>
CVD-0007739

> <SMILES>
O=C(CSc1ccccn1)N(C1CCS(=O)(=O)C1)c1cnc[nH]c1=O

$$$$

  CDD

  0  0  0  0  0  0            999 V2000
M  END
> <Molecule Name>
CVD-0007738

> <SMILES>
O=C(CSc1ccccn1)N(C1CCS(=O)(=O)C1)n1cnccc1=O

$$$$

  CDD

  0  0  0  0  0  0            999 V2000
M  END
> <Molecule Name>
CVD-0007737

> <SMILES>
O=C(CSc1ccccn1)N(C1CCS(=O)(=O)C1)c1nccc(=O)[nH]1

$$$$

  CDD

  0  0  0  0  0  0            999 V2000
M  END
> <Molecule Name>
CVD-0007736

> <SMILES>
O=C(CSc1ccccn1)N(C1CCS(=O)(=O)C1)c1cn[nH]c(=O)c1

$$$$

  CDD

  0  0  0  0  0  0            999 V2000
M  END
> <Molecule Name>
CVD-0007735

> <SMILES>
O=C(CSc1ccccn1)N(C1CCS(=O)(=O)C1)c1ccn[nH]c1=O

$$$$

  CDD

  0  0  0  0  0  0            999 V2000
M  END
> <Molecule Name>
CVD-0007734

> <SMILES>
O=C(CSc1ccccn1)C(C1CCS(=O)(=O)C1)n1ncccc1=O

$$$$

  CDD

  0  0  0  0  0  0            999 V2000
M  END
> <Molecule Name>
CVD-0007733

> <SMILES>
O=C(CSc1ccccn1)N(C1CCS(=O)(=O)C1)c1ccc(=O)[nH]n1

$$$$

  CDD

  0  0  0  0  0  0            999 V2000
M  END
> <Molecule Name>
CVD-0007732

> <SMILES>
O=C(CSc1ccccn1)N(C1CCS(=O)(=O)C1)c1cc[nH]c(=O)c1

$$$$

  CDD

  0  0  0  0  0  0            999 V2000
M  END
> <Molecule Name>
CVD-0007731

> <SMILES>
O=C(CSc1ccccn1)N(C1CCS(=O)(=O)C1)c1ccc[nH]c1=O

$$$$

  CDD

  0  0  0  0  0  0            999 V2000
M  END
> <Molecule Name>
CVD-0007730

> <SMILES>
O=C(CSc1ccccn1)N(C1CCS(=O)(=O)C1)c1cccc(=O)[nH]1

$$$$

  CDD

  0  0  0  0  0  0            999 V2000
M  END
> <Molecule Name>
CVD-0007729

> <SMILES>
O=C(CSc1ccccn1)N(C1CCS(=O)(=O)C1)c1ccc(=O)[nH]c1

$$$$

  CDD

  0  0  0  0  0  0            999 V2000
M  END
> <Molecule Name>
CVD-0007728

> <SMILES>
O=C(CSc1ccccn1)N(C1CCS(=O)(=O)C1)c1ccncc1

$$$$

  CDD

  0  0  0  0  0  0            999 V2000
M  END
> <Molecule Name>
CVD-0007727

> <SMILES>
O=C(CSc1ccccn1)N(C1CCS(=O)(=O)C1)c1ccccn1

$$$$

  CDD

  0  0  0  0  0  0            999 V2000
M  END
> <Molecule Name>
CVD-0007726

> <SMILES>
O=C(CSc1ccccn1)N(C1CCS(=O)(=O)C1)c1cccnc1

$$$$

  CDD

  0  0  0  0  0  0            999 V2000
M  END
> <Molecule Name>
CVD-0007725

> <SMILES>
O=C(CSc1ccccn1)N(C1CCS(=O)(=O)C1)n1cnnn1

$$$$

  CDD

  0  0  0  0  0  0            999 V2000
M  END
> <Molecule Name>
CVD-0007724

> <SMILES>
O=C(CSc1ccccn1)N(C1CCS(=O)(=O)C1)c1nnn[nH]1

$$$$

  CDD

  0  0  0  0  0  0            999 V2000
M  END
> <Molecule Name>
CVD-0007723

> <SMILES>
O=C(CSc1ccccn1)N(C1CCS(=O)(=O)C1)c1cnsn1

$$$$

  CDD

  0  0  0  0  0  0            999 V2000
M  END
> <Molecule Name>
CVD-0007722

> <SMILES>
O=C(CSc1ccccn1)N(C1CCS(=O)(=O)C1)c1ncns1

$$$$

  CDD

  0  0  0  0  0  0            999 V2000
M  END
> <Molecule Name>
CVD-0007721

> <SMILES>
O=C(CSc1ccccn1)N(C1CCS(=O)(=O)C1)c1ncsn1

$$$$

  CDD

  0  0  0  0  0  0            999 V2000
M  END
> <Molecule Name>
CVD-0007720

> <SMILES>
O=C(CSc1ccccn1)N(C1CCS(=O)(=O)C1)c1nncs1

$$$$

  CDD

  0  0  0  0  0  0            999 V2000
M  END
> <Molecule Name>
CVD-0007719

> <SMILES>
O=C(CSc1ccccn1)N(C1CCS(=O)(=O)C1)c1cnon1

$$$$

  CDD

  0  0  0  0  0  0            999 V2000
M  END
> <Molecule Name>
CVD-0007718

> <SMILES>
O=C(CSc1ccccn1)N(C1CCS(=O)(=O)C1)c1ncno1

$$$$

  CDD

  0  0  0  0  0  0            999 V2000
M  END
> <Molecule Name>
CVD-0007717

> <SMILES>
O=C(CSc1ccccn1)N(C1CCS(=O)(=O)C1)c1ncon1

$$$$

  CDD

  0  0  0  0  0  0            999 V2000
M  END
> <Molecule Name>
CVD-0007716

> <SMILES>
O=C(CSc1ccccn1)N(C1CCS(=O)(=O)C1)c1nnco1

$$$$

  CDD

  0  0  0  0  0  0            999 V2000
M  END
> <Molecule Name>
CVD-0007715

> <SMILES>
O=C(CSc1ccccn1)N(C1CCS(=O)(=O)C1)n1nccn1

$$$$

  CDD

  0  0  0  0  0  0            999 V2000
M  END
> <Molecule Name>
CVD-0007714

> <SMILES>
O=C(CSc1ccccn1)N(C1CCS(=O)(=O)C1)c1cn[nH]n1

$$$$

  CDD

  0  0  0  0  0  0            999 V2000
M  END
> <Molecule Name>
CVD-0007713

> <SMILES>
O=C(CSc1ccccn1)N(C1CCS(=O)(=O)C1)n1cnnc1

$$$$

  CDD

  0  0  0  0  0  0            999 V2000
M  END
> <Molecule Name>
CVD-0007712

> <SMILES>
O=C(CSc1ccccn1)N(C1CCS(=O)(=O)C1)c1nnc[nH]1

$$$$

  CDD

  0  0  0  0  0  0            999 V2000
M  END
> <Molecule Name>
CVD-0007711

> <SMILES>
O=C(CSc1ccccn1)N(C1CCS(=O)(=O)C1)c1ccns1

$$$$

  CDD

  0  0  0  0  0  0            999 V2000
M  END
> <Molecule Name>
CVD-0007710

> <SMILES>
O=C(CSc1ccccn1)N(C1CCS(=O)(=O)C1)c1cnsc1

$$$$

  CDD

  0  0  0  0  0  0            999 V2000
M  END
> <Molecule Name>
CVD-0007709

> <SMILES>
O=C(CSc1ccccn1)N(C1CCS(=O)(=O)C1)c1ccsn1

$$$$

  CDD

  0  0  0  0  0  0            999 V2000
M  END
> <Molecule Name>
CVD-0007708

> <SMILES>
O=C(CSc1ccccn1)N(C1CCS(=O)(=O)C1)c1nccs1

$$$$

  CDD

  0  0  0  0  0  0            999 V2000
M  END
> <Molecule Name>
CVD-0007707

> <SMILES>
O=C(CSc1ccccn1)N(C1CCS(=O)(=O)C1)c1cncs1

$$$$

  CDD

  0  0  0  0  0  0            999 V2000
M  END
> <Molecule Name>
CVD-0007706

> <SMILES>
O=C(CSc1ccccn1)N(C1CCS(=O)(=O)C1)c1cscn1

$$$$

  CDD

  0  0  0  0  0  0            999 V2000
M  END
> <Molecule Name>
CVD-0007705

> <SMILES>
O=C(CSc1ccccn1)N(C1CCS(=O)(=O)C1)c1ccno1

$$$$

  CDD

  0  0  0  0  0  0            999 V2000
M  END
> <Molecule Name>
CVD-0007704

> <SMILES>
O=C(CSc1ccccn1)N(C1CCS(=O)(=O)C1)c1cnoc1

$$$$

  CDD

  0  0  0  0  0  0            999 V2000
M  END
> <Molecule Name>
CVD-0007703

> <SMILES>
O=C(CSc1ccccn1)N(C1CCS(=O)(=O)C1)c1ccon1

$$$$

  CDD

  0  0  0  0  0  0            999 V2000
M  END
> <Molecule Name>
CVD-0007702

> <SMILES>
O=C(CSc1ccccn1)N(C1CCS(=O)(=O)C1)c1ncco1

$$$$

  CDD

  0  0  0  0  0  0            999 V2000
M  END
> <Molecule Name>
CVD-0007701

> <SMILES>
O=C(CSc1ccccn1)N(C1CCS(=O)(=O)C1)c1cnco1

$$$$

  CDD

  0  0  0  0  0  0            999 V2000
M  END
> <Molecule Name>
CVD-0007700

> <SMILES>
O=C(CSc1ccccn1)N(C1CCS(=O)(=O)C1)c1cocn1

$$$$

  CDD

  0  0  0  0  0  0            999 V2000
M  END
> <Molecule Name>
CVD-0007699

> <SMILES>
O=C(CSc1ccccn1)C(C1CCS(=O)(=O)C1)n1cccn1

$$$$

  CDD

  0  0  0  0  0  0            999 V2000
M  END
> <Molecule Name>
CVD-0007698

> <SMILES>
O=C(CSc1ccccn1)N(C1CCS(=O)(=O)C1)n1cccn1

$$$$

  CDD

  0  0  0  0  0  0            999 V2000
M  END
> <Molecule Name>
CVD-0007697

> <SMILES>
O=C(CSc1ccccn1)N(C1CCS(=O)(=O)C1)c1cn[nH]c1

$$$$

  CDD

  0  0  0  0  0  0            999 V2000
M  END
> <Molecule Name>
CVD-0007696

> <SMILES>
O=C(CSc1ccccn1)N(C1CCS(=O)(=O)C1)c1cc[nH]n1

$$$$

  CDD

  0  0  0  0  0  0            999 V2000
M  END
> <Molecule Name>
CVD-0007695

> <SMILES>
O=C(CSc1ccccn1)N(C1CCS(=O)(=O)C1)c1ncc[nH]1

$$$$

  CDD

  0  0  0  0  0  0            999 V2000
M  END
> <Molecule Name>
CVD-0007694

> <SMILES>
O=C(CSc1ccccn1)N(C1CCS(=O)(=O)C1)n1ccnc1

$$$$

  CDD

  0  0  0  0  0  0            999 V2000
M  END
> <Molecule Name>
CVD-0007693

> <SMILES>
O=C(CSc1ccccn1)N(C1CCS(=O)(=O)C1)c1c[nH]cn1

$$$$

  CDD

  0  0  0  0  0  0            999 V2000
M  END
> <Molecule Name>
CVD-0007692

> <SMILES>
O=C(CSc1ccccn1)N(C1CCS(=O)(=O)C1)c1cccs1

$$$$

  CDD

  0  0  0  0  0  0            999 V2000
M  END
> <Molecule Name>
CVD-0007691

> <SMILES>
O=C(CSc1ccccn1)N(C1CCS(=O)(=O)C1)c1ccsc1

$$$$

  CDD

  0  0  0  0  0  0            999 V2000
M  END
> <Molecule Name>
CVD-0007690

> <SMILES>
O=C(CSc1ccccn1)N(C1CCS(=O)(=O)C1)c1ccco1

$$$$

  CDD

  0  0  0  0  0  0            999 V2000
M  END
> <Molecule Name>
CVD-0007689

> <SMILES>
O=C(CSc1ccccn1)N(C1CCS(=O)(=O)C1)c1ccoc1

$$$$

  CDD

  0  0  0  0  0  0            999 V2000
M  END
> <Molecule Name>
CVD-0007688

> <SMILES>
O=C(CSc1ccccn1)N(C1CCS(=O)(=O)C1)n1cccc1

$$$$

  CDD

  0  0  0  0  0  0            999 V2000
M  END
> <Molecule Name>
CVD-0007687

> <SMILES>
O=C(CSc1ccccn1)N(C1CCS(=O)(=O)C1)c1ccc[nH]1

$$$$

  CDD

  0  0  0  0  0  0            999 V2000
M  END
> <Molecule Name>
CVD-0007686

> <SMILES>
O=C(CSc1ccccn1)N(C1CCS(=O)(=O)C1)c1cc[nH]c1

$$$$

  CDD

  0  0  0  0  0  0            999 V2000
M  END
> <Molecule Name>
CVD-0007685

> <SMILES>
C[C@@H](C(O)=O)c1cc(C)c2c(c1)[nH]c1ccc(Cl)cc21

$$$$

  CDD

  0  0  0  0  0  0            999 V2000
M  END
> <Molecule Name>
CVD-0007684

> <SMILES>
CN(C)c1nc(ccc1C(C)(C)N)-c1c(C)[nH]nc1N1CCN(CC1)C1CCOC1

$$$$

  CDD

  0  0  0  0  0  0            999 V2000
M  END
> <Molecule Name>
CVD-0007683

> <SMILES>
CC(C)Cc1ccc2OCC(=O)COc2c1

$$$$

  CDD

  0  0  0  0  0  0            999 V2000
M  END
> <Molecule Name>
CVD-0007682

> <SMILES>
CN(C)S(=O)(=O)CN(C1CCS(=O)(=O)C1)C(=O)CSc1ccccn1

$$$$

  CDD

  0  0  0  0  0  0            999 V2000
M  END
> <Molecule Name>
CVD-0007681

> <SMILES>
CNS(=O)(=O)CN(C1CCS(=O)(=O)C1)C(=O)CSc1ccccn1

$$$$

  CDD

  0  0  0  0  0  0            999 V2000
M  END
> <Molecule Name>
CVD-0007680

> <SMILES>
NS(=O)(=O)CN(C1CCS(=O)(=O)C1)C(=O)CSc1ccccn1

$$$$

  CDD

  0  0  0  0  0  0            999 V2000
M  END
> <Molecule Name>
CVD-0007679

> <SMILES>
CN(N(C1CCS(=O)(=O)C1)C(=O)CSc1ccccn1)S(C)(=O)=O

$$$$

  CDD

  0  0  0  0  0  0            999 V2000
M  END
> <Molecule Name>
CVD-0007678

> <SMILES>
CNS(=O)(=O)C(C1CCS(=O)(=O)C1)C(=O)CSc1ccccn1

$$$$

  CDD

  0  0  0  0  0  0            999 V2000
M  END
> <Molecule Name>
CVD-0007677

> <SMILES>
O=C(CSc1ccccn1)N(C1CCN1)C1CCS(=O)(=O)C1

$$$$

  CDD

  0  0  0  0  0  0            999 V2000
M  END
> <Molecule Name>
CVD-0007676

> <SMILES>
O=C(CSc1ccccn1)N(C1CCO1)C1CCS(=O)(=O)C1

$$$$

  CDD

  0  0  0  0  0  0            999 V2000
M  END
> <Molecule Name>
CVD-0007675

> <SMILES>
COC(C1CCS(=O)(=O)C1)C(=O)CSc1ccccn1

$$$$

  CDD

  0  0  0  0  0  0            999 V2000
M  END
> <Molecule Name>
CVD-0007674

> <SMILES>
COCN(C1CCS(=O)(=O)C1)C(=O)CSc1ccccn1

$$$$

  CDD

  0  0  0  0  0  0            999 V2000
M  END
> <Molecule Name>
CVD-0007673

> <SMILES>
OCC(C1CCS(=O)(=O)C1)C(=O)CSc1ccccn1

$$$$

  CDD

  0  0  0  0  0  0            999 V2000
M  END
> <Molecule Name>
CVD-0007672

> <SMILES>
OC(C1CCS(=O)(=O)C1)C(=O)CSc1ccccn1

$$$$

  CDD

  0  0  0  0  0  0            999 V2000
M  END
> <Molecule Name>
CVD-0007671

> <SMILES>
CNN(C1CCS(=O)(=O)C1)C(=O)CSc1ccccn1

$$$$

  CDD

  0  0  0  0  0  0            999 V2000
M  END
> <Molecule Name>
CVD-0007670

> <SMILES>
NN(C1CCS(=O)(=O)C1)C(=O)CSc1ccccn1

$$$$

  CDD

  0  0  0  0  0  0            999 V2000
M  END
> <Molecule Name>
CVD-0007669

> <SMILES>
NS(=O)(=O)NN(C1CCS(=O)(=O)C1)C(=O)CSc1ccccn1

$$$$

  CDD

  0  0  0  0  0  0            999 V2000
M  END
> <Molecule Name>
CVD-0007668

> <SMILES>
CS(=O)(=O)CN(C1CCS(=O)(=O)C1)C(=O)CSc1ccccn1

$$$$

  CDD

  0  0  0  0  0  0            999 V2000
M  END
> <Molecule Name>
CVD-0007667

> <SMILES>
CNS(=O)(=O)N(C1CCS(=O)(=O)C1)C(=O)CSc1ccccn1

$$$$

  CDD

  0  0  0  0  0  0            999 V2000
M  END
> <Molecule Name>
CVD-0007666

> <SMILES>
NS(=O)(=O)N(C1CCS(=O)(=O)C1)C(=O)CSc1ccccn1

$$$$

  CDD

  0  0  0  0  0  0            999 V2000
M  END
> <Molecule Name>
CVD-0007665

> <SMILES>
CS(=O)(=O)N(C1CCS(=O)(=O)C1)C(=O)CSc1ccccn1

$$$$

  CDD

  0  0  0  0  0  0            999 V2000
M  END
> <Molecule Name>
CVD-0007664

> <SMILES>
COC(C)(C)N(C1CCS(=O)(=O)C1)C(=O)CSc1ccccn1

$$$$

  CDD

  0  0  0  0  0  0            999 V2000
M  END
> <Molecule Name>
CVD-0007663

> <SMILES>
CC(C)(O)CN(C1CCS(=O)(=O)C1)C(=O)CSc1ccccn1

$$$$

  CDD

  0  0  0  0  0  0            999 V2000
M  END
> <Molecule Name>
CVD-0007662

> <SMILES>
CC(C)(CO)N(C1CCS(=O)(=O)C1)C(=O)CSc1ccccn1

$$$$

  CDD

  0  0  0  0  0  0            999 V2000
M  END
> <Molecule Name>
CVD-0007661

> <SMILES>
CN(N(C1CCS(=O)(=O)C1)C(=O)CSc1ccccn1)C(N)=O

$$$$

  CDD

  0  0  0  0  0  0            999 V2000
M  END
> <Molecule Name>
CVD-0007660

> <SMILES>
CNC(=O)NN(C1CCS(=O)(=O)C1)C(=O)CSc1ccccn1

$$$$

  CDD

  0  0  0  0  0  0            999 V2000
M  END
> <Molecule Name>
CVD-0007659

> <SMILES>
NC(=O)NCN(C1CCS(=O)(=O)C1)C(=O)CSc1ccccn1

$$$$

  CDD

  0  0  0  0  0  0            999 V2000
M  END
> <Molecule Name>
CVD-0007658

> <SMILES>
OC1(COC1)N(C1CCS(=O)(=O)C1)C(=O)CSc1ccccn1

$$$$

  CDD

  0  0  0  0  0  0            999 V2000
M  END
> <Molecule Name>
CVD-0007657

> <SMILES>
NC(=O)CCN(C1CCS(=O)(=O)C1)C(=O)CSc1ccccn1

$$$$

  CDD

  0  0  0  0  0  0            999 V2000
M  END
> <Molecule Name>
CVD-0007656

> <SMILES>
CCC(=O)NN(C1CCS(=O)(=O)C1)C(=O)CSc1ccccn1

$$$$

  CDD

  0  0  0  0  0  0            999 V2000
M  END
> <Molecule Name>
CVD-0007655

> <SMILES>
CN(C)C(=O)N(C1CCS(=O)(=O)C1)C(=O)CSc1ccccn1

$$$$

  CDD

  0  0  0  0  0  0            999 V2000
M  END
> <Molecule Name>
CVD-0007654

> <SMILES>
CNC(=O)CN(C1CCS(=O)(=O)C1)C(=O)CSc1ccccn1

$$$$

  CDD

  0  0  0  0  0  0            999 V2000
M  END
> <Molecule Name>
CVD-0007653

> <SMILES>
CC(=O)NCN(C1CCS(=O)(=O)C1)C(=O)CSc1ccccn1

$$$$

  CDD

  0  0  0  0  0  0            999 V2000
M  END
> <Molecule Name>
CVD-0007652

> <SMILES>
COC1(CC1)N(C1CCS(=O)(=O)C1)C(=O)CSc1ccccn1

$$$$

  CDD

  0  0  0  0  0  0            999 V2000
M  END
> <Molecule Name>
CVD-0007651

> <SMILES>
O=C(CSc1ccccn1)N(C1CCS(=O)(=O)C1)C1CCCO1

$$$$

  CDD

  0  0  0  0  0  0            999 V2000
M  END
> <Molecule Name>
CVD-0007650

> <SMILES>
OCC1(CC1)N(C1CCS(=O)(=O)C1)C(=O)CSc1ccccn1

$$$$

  CDD

  0  0  0  0  0  0            999 V2000
M  END
> <Molecule Name>
CVD-0007649

> <SMILES>
O=C(CSc1ccccn1)N(CC1CCO1)C1CCS(=O)(=O)C1

$$$$

  CDD

  0  0  0  0  0  0            999 V2000
M  END
> <Molecule Name>
CVD-0007648

> <SMILES>
CC1(COC1)N(C1CCS(=O)(=O)C1)C(=O)CSc1ccccn1

$$$$

  CDD

  0  0  0  0  0  0            999 V2000
M  END
> <Molecule Name>
CVD-0007647

> <SMILES>
O=C(CSc1ccccn1)N(CC1COC1)C1CCS(=O)(=O)C1

$$$$

  CDD

  0  0  0  0  0  0            999 V2000
M  END
> <Molecule Name>
CVD-0007646

> <SMILES>
OC1(CN(C2CCS(=O)(=O)C2)C(=O)CSc2ccccn2)CC1

$$$$

  CDD

  0  0  0  0  0  0            999 V2000
M  END
> <Molecule Name>
CVD-0007645

> <SMILES>
OC1(CCC1)N(C1CCS(=O)(=O)C1)C(=O)CSc1ccccn1

$$$$

  CDD

  0  0  0  0  0  0            999 V2000
M  END
> <Molecule Name>
CVD-0007644

> <SMILES>
OC1CC(C1)N(C1CCS(=O)(=O)C1)C(=O)CSc1ccccn1

$$$$

  CDD

  0  0  0  0  0  0            999 V2000
M  END
> <Molecule Name>
CVD-0007643

> <SMILES>
O=C(CSc1ccccn1)N(C1CCOC1)C1CCS(=O)(=O)C1

$$$$

  CDD

  0  0  0  0  0  0            999 V2000
M  END
> <Molecule Name>
CVD-0007642

> <SMILES>
OCCON(C1CCS(=O)(=O)C1)C(=O)CSc1ccccn1

$$$$

  CDD

  0  0  0  0  0  0            999 V2000
M  END
> <Molecule Name>
CVD-0007641

> <SMILES>
CC(C)(O)N(C1CCS(=O)(=O)C1)C(=O)CSc1ccccn1

$$$$

  CDD

  0  0  0  0  0  0            999 V2000
M  END
> <Molecule Name>
CVD-0007640

> <SMILES>
OCCCN(C1CCS(=O)(=O)C1)C(=O)CSc1ccccn1

$$$$

  CDD

  0  0  0  0  0  0            999 V2000
M  END
> <Molecule Name>
CVD-0007639

> <SMILES>
NC(=O)NN(C1CCS(=O)(=O)C1)C(=O)CSc1ccccn1

$$$$

  CDD

  0  0  0  0  0  0            999 V2000
M  END
> <Molecule Name>
CVD-0007638

> <SMILES>
NC(=O)CN(C1CCS(=O)(=O)C1)C(=O)CSc1ccccn1

$$$$

  CDD

  0  0  0  0  0  0            999 V2000
M  END
> <Molecule Name>
CVD-0007637

> <SMILES>
CC(=O)NN(C1CCS(=O)(=O)C1)C(=O)CSc1ccccn1

$$$$

  CDD

  0  0  0  0  0  0            999 V2000
M  END
> <Molecule Name>
CVD-0007636

> <SMILES>
CNC(=O)N(C1CCS(=O)(=O)C1)C(=O)CSc1ccccn1

$$$$

  CDD

  0  0  0  0  0  0            999 V2000
M  END
> <Molecule Name>
CVD-0007635

> <SMILES>
OC1(CC1)N(C1CCS(=O)(=O)C1)C(=O)CSc1ccccn1

$$$$

  CDD

  0  0  0  0  0  0            999 V2000
M  END
> <Molecule Name>
CVD-0007634

> <SMILES>
O=C(CSc1ccccn1)N(C1COC1)C1CCS(=O)(=O)C1

$$$$

  CDD

  0  0  0  0  0  0            999 V2000
M  END
> <Molecule Name>
CVD-0007633

> <SMILES>
CC(C)C(NC(=O)C12CC3CC(CC(C3)C1)C2)C(=O)NCc1ccoc1

$$$$

  CDD

  0  0  0  0  0  0            999 V2000
M  END
> <Molecule Name>
CVD-0007632

> <SMILES>
O=C(CSc1ccc2CCCc2c1)N1CC(=O)NC(=O)C11CCCCC1

$$$$

  CDD

  0  0  0  0  0  0            999 V2000
M  END
> <Molecule Name>
CVD-0007631

> <SMILES>
CC1CN(CC2CCCN2C(=O)Cn2nc(C)c3ccccc3c2=O)CC(C)O1

$$$$

  CDD

  0  0  0  0  0  0            999 V2000
M  END
> <Molecule Name>
CVD-0007630

> <SMILES>
Cc1ccc(CCC(=O)N2CCC3C(CCC(=O)N3C3CC3)C2)o1

$$$$

  CDD

  0  0  0  0  0  0            999 V2000
M  END
> <Molecule Name>
CVD-0007629

> <SMILES>
CCOC1CC(NC(=O)NC(C)Cn2cncn2)C11CCCCC1

$$$$

  CDD

  0  0  0  0  0  0            999 V2000
M  END
> <Molecule Name>
CVD-0007628

> <SMILES>
CC(NC(=O)C12CC3CC(CC(C3)C1)C2)C(N1CCN(C)CC1)c1ccccc1

$$$$

  CDD

  0  0  0  0  0  0            999 V2000
M  END
> <Molecule Name>
CVD-0007627

> <SMILES>
CC1(C)CCC(NC(=O)C2CN(C3CCS(=O)(=O)C3)C(=O)C2)c2ccccc12

$$$$

  CDD

  0  0  0  0  0  0            999 V2000
M  END
> <Molecule Name>
CVD-0007626

> <SMILES>
O=C(CSc1ccccn1)N(C1CCCC1)C1CCS(=O)(=O)C1

$$$$

  CDD

  0  0  0  0  0  0            999 V2000
M  END
> <Molecule Name>
CVD-0007625

> <SMILES>
CCN(Cc1ccc(OC)c(F)c1)C(=O)C(Cc1c[nH]c2ccccc12)NC(C)=O

$$$$

  CDD

  0  0  0  0  0  0            999 V2000
M  END
> <Molecule Name>
CVD-0007624

> <SMILES>
O=C(CSc1ccccn1)N(C1CCS(=O)(=O)C1)C1CCCCC1

$$$$

  CDD

  0  0  0  0  0  0            999 V2000
M  END
> <Molecule Name>
CVD-0007623

> <SMILES>
CC1CCCC(C1)OCC(=O)Nc1cn(C)nc1C(F)(F)F

$$$$

  CDD

  0  0  0  0  0  0            999 V2000
M  END
> <Molecule Name>
CVD-0007622

> <SMILES>
CC(C)C(NC(=O)C12CC3CC(CC(C3)C1)C2)C(=O)Nc1ccc2OCOc2c1

$$$$

  CDD

  0  0  0  0  0  0            999 V2000
M  END
> <Molecule Name>
CVD-0007621

> <SMILES>
Cn1c2ncn(CC(=O)N3N=C4C(CCC\C4=C\c4ccco4)C3c3ccco3)c2c(=O)n(C)c1=O

$$$$

  CDD

  0  0  0  0  0  0            999 V2000
M  END
> <Molecule Name>
CVD-0007620

> <SMILES>
FC(F)(F)C(Cc1ccc2OCC(=O)COc2c1)C(F)(F)F

$$$$

  CDD

  0  0  0  0  0  0            999 V2000
M  END
> <Molecule Name>
CVD-0007619

> <SMILES>
C=CC(=O)N1CCN(CC1)S(=O)(=O)C1=CCC=C1

$$$$

  CDD

  0  0  0  0  0  0            999 V2000
M  END
> <Molecule Name>
CVD-0007618

> <SMILES>
ClCC(=O)N1CCN(CC1)S(=O)(=O)C1=CCC=C1

$$$$

  CDD

  0  0  0  0  0  0            999 V2000
M  END
> <Molecule Name>
CVD-0007617

> <SMILES>
ClCC(=O)N1CC2CC1CN2S(=O)(=O)C1=CCS=C1

$$$$

  CDD

  0  0  0  0  0  0            999 V2000
M  END
> <Molecule Name>
CVD-0007616

> <SMILES>
ClCC(=O)N1CCN(CC1)S(=O)(=O)C1=C2CC2S=C1

$$$$

  CDD

  0  0  0  0  0  0            999 V2000
M  END
> <Molecule Name>
CVD-0007615

> <SMILES>
ClCC(=O)N1CCN(CC1)S(=O)(=O)C1=C(Cl)CC=C1

$$$$

  CDD

  0  0  0  0  0  0            999 V2000
M  END
> <Molecule Name>
CVD-0007614

> <SMILES>
ClCC(=O)N1CCN(CC1)C(=O)c1ccoc1

$$$$

  CDD

  0  0  0  0  0  0            999 V2000
M  END
> <Molecule Name>
CVD-0007613

> <SMILES>
ClCC(=O)N1CCN(CC1)C(=O)c1cocn1

$$$$

  CDD

  0  0  0  0  0  0            999 V2000
M  END
> <Molecule Name>
CVD-0007612

> <SMILES>
ClCC(=O)N1CCN(CC1)S(=O)(=O)c1cocn1

$$$$

  CDD

  0  0  0  0  0  0            999 V2000
M  END
> <Molecule Name>
CVD-0007611

> <SMILES>
ClCC(=O)N1CCN(CC1)S(=O)(=O)c1ccoc1

$$$$

  CDD

  0  0  0  0  0  0            999 V2000
M  END
> <Molecule Name>
CVD-0007610

> <SMILES>
CC(Cc1ccc2OCC(=O)COc2c1)C(F)(F)F

$$$$

  CDD

  0  0  0  0  0  0            999 V2000
M  END
> <Molecule Name>
CVD-0007609

> <SMILES>
Cc1ccc2OCC(=O)COc2c1

$$$$

  CDD

  0  0  0  0  0  0            999 V2000
M  END
> <Molecule Name>
CVD-0007608

> <SMILES>
COc1ccc(Cl)cc1N1C(=O)CN(Cc2cc(=O)[nH]c3ccccc23)C1=O

$$$$

  CDD

  0  0  0  0  0  0            999 V2000
M  END
> <Molecule Name>
CVD-0007607

> <SMILES>
COc1ccc(Cl)cc1N1CCN(Cc2cc(=O)[nH]c3ccccc23)C1=O

$$$$

  CDD

  0  0  0  0  0  0            999 V2000
M  END
> <Molecule Name>
CVD-0007606

> <SMILES>
Cc1ccc(cc1)-c1cc(nc(NC(=O)NCc2ccccc2)n1)-c1ccccc1Cl

$$$$

  CDD

  0  0  0  0  0  0            999 V2000
M  END
> <Molecule Name>
CVD-0007605

> <SMILES>
COc1ccccc1OCCNC(=O)c1c(C#N)c(=O)[nH]c2ccccc12

$$$$

  CDD

  0  0  0  0  0  0            999 V2000
M  END
> <Molecule Name>
CVD-0007604

> <SMILES>
Clc1cccc(c1)C1N(Cc2ccccc2)CCN(C1=O)c1cccnc1

$$$$

  CDD

  0  0  0  0  0  0            999 V2000
M  END
> <Molecule Name>
CVD-0007603

> <SMILES>
Clc1cccc(c1)N(CCc1ccccc1)C(=O)Nc1cccnc1

$$$$

  CDD

  0  0  0  0  0  0            999 V2000
M  END
> <Molecule Name>
CVD-0007602

> <SMILES>
Clc1cccc(c1)C1N(CC2CCCCC2)CCN(C1=O)c1cccnc1

$$$$

  CDD

  0  0  0  0  0  0            999 V2000
M  END
> <Molecule Name>
CVD-0007601

> <SMILES>
O=C(N1CCN(CC1)c1cccc(OC2CC(=O)N2)c1)c1cc(=O)[nH]c2ccccc12

$$$$

  CDD

  0  0  0  0  0  0            999 V2000
M  END
> <Molecule Name>
CVD-0007600

> <SMILES>
Clc1cc(OCCNC(=O)c2cc(=O)[nH]c3ccccc23)cc(Oc2cccnc2)c1

$$$$

  CDD

  0  0  0  0  0  0            999 V2000
M  END
> <Molecule Name>
CVD-0007599

> <SMILES>
Clc1cc(OCCNC(=O)c2cc(=O)[nH]c3ccccc23)cc(Oc2cccc(=O)[nH]2)c1

$$$$

  CDD

  0  0  0  0  0  0            999 V2000
M  END
> <Molecule Name>
CVD-0007598

> <SMILES>
Clc1cc(OCCNC(=O)c2cc(=O)[nH]c3ccccc23)cc(OC2CCC(=O)N2)c1

$$$$

  CDD

  0  0  0  0  0  0            999 V2000
M  END
> <Molecule Name>
CVD-0007597

> <SMILES>
Clc1cc(OCCNC(=O)c2cc(=O)[nH]c3ccccc23)cc(OC2CC(=O)N2)c1

$$$$

  CDD

  0  0  0  0  0  0            999 V2000
M  END
> <Molecule Name>
CVD-0007596

> <SMILES>
O=C(NCCOc1cccc(Oc2cccnc2)c1)c1cc(=O)[nH]c2ccccc12

$$$$

  CDD

  0  0  0  0  0  0            999 V2000
M  END
> <Molecule Name>
CVD-0007595

> <SMILES>
O=C(NCCOc1cccc(Oc2cccc(=O)[nH]2)c1)c1cc(=O)[nH]c2ccccc12

$$$$

  CDD

  0  0  0  0  0  0            999 V2000
M  END
> <Molecule Name>
CVD-0007594

> <SMILES>
O=C(NCCOc1cccc(OC2CCC(=O)N2)c1)c1cc(=O)[nH]c2ccccc12

$$$$

  CDD

  0  0  0  0  0  0            999 V2000
M  END
> <Molecule Name>
CVD-0007593

> <SMILES>
O=C(NCCOc1cccc(OC2CC(=O)N2)c1)c1cc(=O)[nH]c2ccccc12

$$$$

  CDD

  0  0  0  0  0  0            999 V2000
M  END
> <Molecule Name>
CVD-0007592

> <SMILES>
O=C(Cc1cncc2ccccc12)Nc1cc(Oc2cccnc2)cc(c1)C#N

$$$$

  CDD

  0  0  0  0  0  0            999 V2000
M  END
> <Molecule Name>
CVD-0007591

> <SMILES>
O=C(Cc1cncc2ccccc12)Nc1cc(Oc2cccc(=O)[nH]2)cc(c1)C#N

$$$$

  CDD

  0  0  0  0  0  0            999 V2000
M  END
> <Molecule Name>
CVD-0007590

> <SMILES>
O=C(Cc1cncc2ccccc12)Nc1cc(OC2CCC(=O)N2)cc(c1)C#N

$$$$

  CDD

  0  0  0  0  0  0            999 V2000
M  END
> <Molecule Name>
CVD-0007589

> <SMILES>
O=C(Cc1cncc2ccccc12)Nc1cc(OC2CC(=O)N2)cc(c1)C#N

$$$$

  CDD

  0  0  0  0  0  0            999 V2000
M  END
> <Molecule Name>
CVD-0007588

> <SMILES>
Clc1cc(NC(=O)Cc2cncc3ccccc23)cc(Oc2cccnc2)c1

$$$$

  CDD

  0  0  0  0  0  0            999 V2000
M  END
> <Molecule Name>
CVD-0007587

> <SMILES>
Clc1cc(NC(=O)Cc2cncc3ccccc23)cc(Oc2cccc(=O)[nH]2)c1

$$$$

  CDD

  0  0  0  0  0  0            999 V2000
M  END
> <Molecule Name>
CVD-0007586

> <SMILES>
Clc1cc(NC(=O)Cc2cncc3ccccc23)cc(OC2CCC(=O)N2)c1

$$$$

  CDD

  0  0  0  0  0  0            999 V2000
M  END
> <Molecule Name>
CVD-0007585

> <SMILES>
Clc1cc(NC(=O)Cc2cncc3ccccc23)cc(OC2CC(=O)N2)c1

$$$$

  CDD

  0  0  0  0  0  0            999 V2000
M  END
> <Molecule Name>
CVD-0007584

> <SMILES>
O=C(Cc1cncc2ccccc12)Nc1cccc(Oc2cccnc2)c1

$$$$

  CDD

  0  0  0  0  0  0            999 V2000
M  END
> <Molecule Name>
CVD-0007583

> <SMILES>
O=C(Cc1cncc2ccccc12)Nc1cccc(Oc2cccc(=O)[nH]2)c1

$$$$

  CDD

  0  0  0  0  0  0            999 V2000
M  END
> <Molecule Name>
CVD-0007582

> <SMILES>
O=C(Cc1cncc2ccccc12)Nc1cccc(OC2CCC(=O)N2)c1

$$$$

  CDD

  0  0  0  0  0  0            999 V2000
M  END
> <Molecule Name>
CVD-0007581

> <SMILES>
O=C(Cc1cncc2ccccc12)Nc1cccc(OC2CC(=O)N2)c1

$$$$

  CDD

  0  0  0  0  0  0            999 V2000
M  END
> <Molecule Name>
CVD-0007580

> <SMILES>
Clc1cccc(c1)N(CCC1CCCCC1)C(=O)Nc1cc(=O)[nH]c2ccccc12

$$$$

  CDD

  0  0  0  0  0  0            999 V2000
M  END
> <Molecule Name>
CVD-0007579

> <SMILES>
COc1cc(Cl)cc(c1)N(CCC1CCCCC1)C(=O)Nc1cc(=O)[nH]c2ccccc12

$$$$

  CDD

  0  0  0  0  0  0            999 V2000
M  END
> <Molecule Name>
CVD-0007578

> <SMILES>
Clc1cccc(CC(=O)Nc2cccc3[nH]ncc23)c1

$$$$

  CDD

  0  0  0  0  0  0            999 V2000
M  END
> <Molecule Name>
CVD-0007577

> <SMILES>
Cc1ccncc1N1C(=O)Cc2ccc(NC(=O)c3ncnc4[nH]ccc34)cc12

$$$$

  CDD

  0  0  0  0  0  0            999 V2000
M  END
> <Molecule Name>
CVD-0007576

> <SMILES>
Cc1ccncc1N1C(=O)C=C(C1=O)c1cccc(Cl)c1

$$$$

  CDD

  0  0  0  0  0  0            999 V2000
M  END
> <Molecule Name>
CVD-0007575

> <SMILES>
Cc1ccncc1N1CC(OCCc2ncnc3[nH]ccc23)C(C1=O)c1cccc(Cl)c1

$$$$

  CDD

  0  0  0  0  0  0            999 V2000
M  END
> <Molecule Name>
CVD-0007574

> <SMILES>
Cc1ccncc1N1CC(OCCc2ncnc3[nH]nnc23)C(C1=O)c1cccc(Cl)c1

$$$$

  CDD

  0  0  0  0  0  0            999 V2000
M  END
> <Molecule Name>
CVD-0007573

> <SMILES>
Cc1ccncc1NC(=O)Cc1ccc2[nH]ncc2c1

$$$$

  CDD

  0  0  0  0  0  0            999 V2000
M  END
> <Molecule Name>
CVD-0007572

> <SMILES>
Cc1ccncc1NC(=O)Cc1ccc2[nH]ccc2c1

$$$$

  CDD

  0  0  0  0  0  0            999 V2000
M  END
> <Molecule Name>
CVD-0007571

> <SMILES>
C=CC(=O)N1CC(C1)NCc1c[nH]c2ccc(cc12)C#N

$$$$

  CDD

  0  0  0  0  0  0            999 V2000
M  END
> <Molecule Name>
CVD-0007570

> <SMILES>
CC(C)C[C@@H]1CN(CCN1C(=O)c1cccc(Cl)c1)C(=O)CCl

$$$$

  CDD

  0  0  0  0  0  0            999 V2000
M  END
> <Molecule Name>
CVD-0007569

> <SMILES>
CC(C)C[C@@H]1CN(CCN1Cc1cccc(c1)S(N)(=O)=O)C(=O)CCl

$$$$

  CDD

  0  0  0  0  0  0            999 V2000
M  END
> <Molecule Name>
CVD-0007568

> <SMILES>
CC(C)C[C@@H]1CN(CCN1Cc1cccc(C)c1)C(=O)CCl

$$$$

  CDD

  0  0  0  0  0  0            999 V2000
M  END
> <Molecule Name>
CVD-0007567

> <SMILES>
NC(=O)C[C@@H]1CN(CCN1Cc1cccc(Cl)c1)C(=O)C=C

$$$$

  CDD

  0  0  0  0  0  0            999 V2000
M  END
> <Molecule Name>
CVD-0007566

> <SMILES>
CC(C)C[C@@H]1CN(CCN1Cc1cccc(Cl)c1)C(=O)C=C

$$$$

  CDD

  0  0  0  0  0  0            999 V2000
M  END
> <Molecule Name>
CVD-0007565

> <SMILES>
NC(=O)C[C@@H]1CN(CCN1Cc1cccc(Cl)c1)C(=O)CCl

$$$$

  CDD

  0  0  0  0  0  0            999 V2000
M  END
> <Molecule Name>
CVD-0007564

> <SMILES>
CC(C)C[C@@H]1CN(CCN1Cc1ccccc1)C(=O)CCl

$$$$

  CDD

  0  0  0  0  0  0            999 V2000
M  END
> <Molecule Name>
CVD-0007563

> <SMILES>
CC(=O)N[C@@H]1CN(CCN1Cc1cccc(Cl)c1)C(=O)CCl

$$$$

  CDD

  0  0  0  0  0  0            999 V2000
M  END
> <Molecule Name>
CVD-0007562

> <SMILES>
CC(C)C[C@@H]1CN(CCN1Cc1cccc(c1)C#N)C(=O)CCl

$$$$

  CDD

  0  0  0  0  0  0            999 V2000
M  END
> <Molecule Name>
CVD-0007561

> <SMILES>
CC(C)C[C@@H]1CN(CCN1Cc1cccc(F)c1)C(=O)CCl

$$$$

  CDD

  0  0  0  0  0  0            999 V2000
M  END
> <Molecule Name>
CVD-0007560

> <SMILES>
CON=C1CC(C1)Oc1cccc(NC(=O)Cc2cccnc2)c1

$$$$

  CDD

  0  0  0  0  0  0            999 V2000
M  END
> <Molecule Name>
CVD-0007559

> <SMILES>
ON=C1CC(C1)Oc1cccc(NC(=O)Cc2cccnc2)c1

$$$$

  CDD

  0  0  0  0  0  0            999 V2000
M  END
> <Molecule Name>
CVD-0007558

> <SMILES>
Sc1ncc[nH]1

$$$$

  CDD

  0  0  0  0  0  0            999 V2000
M  END
> <Molecule Name>
CVD-0007557

> <SMILES>
CCC(C)SSc1ncc[nH]1

$$$$

  CDD

  0  0  0  0  0  0            999 V2000
M  END
> <Molecule Name>
CVD-0007556

> <SMILES>
Oc1cc2oc(cc(=O)c2c(O)c1O)-c1ccccc1

$$$$

  CDD

  0  0  0  0  0  0            999 V2000
M  END
> <Molecule Name>
CVD-0007555

> <SMILES>
CN(C(=O)Cc1ccc(cc1)-c1ccccn1)c1nc(C)c(s1)S(N)(=O)=O

$$$$

  CDD

  0  0  0  0  0  0            999 V2000
M  END
> <Molecule Name>
CVD-0007554

> <SMILES>
Oc1cccc2C(=O)c3cccc(O)c3C(=O)c12

$$$$

  CDD

  0  0  0  0  0  0            999 V2000
M  END
> <Molecule Name>
CVD-0007553

> <SMILES>
OC(=O)CCc1nc2ccccc2[nH]1

$$$$

  CDD

  0  0  0  0  0  0            999 V2000
M  END
> <Molecule Name>
CVD-0007552

> <SMILES>
Cc1ccc2c(oc3c(CC(O)=O)cccc3c2=O)c1C

$$$$

  CDD

  0  0  0  0  0  0            999 V2000
M  END
> <Molecule Name>
CVD-0007551

> <SMILES>
Cc1cc(O)c2C(=O)c3c(O)cccc3C(=O)c2c1

$$$$

  CDD

  0  0  0  0  0  0            999 V2000
M  END
> <Molecule Name>
CVD-0007550

> <SMILES>
OCC(O)C(O)C(O)C(O)CO

$$$$

  CDD

  0  0  0  0  0  0            999 V2000
M  END
> <Molecule Name>
CVD-0007549

> <SMILES>
CC(=O)CCCCn1c(=O)n(C)c2ncn(C)c2c1=O

$$$$

  CDD

  0  0  0  0  0  0            999 V2000
M  END
> <Molecule Name>
CVD-0007548

> <SMILES>
OC1OC2C(O)C(=O)OC2C1O

$$$$

  CDD

  0  0  0  0  0  0            999 V2000
M  END
> <Molecule Name>
CVD-0007547

> <SMILES>
COC(=O)c1cc(O)c(O)c(O)c1

$$$$

  CDD

  0  0  0  0  0  0            999 V2000
M  END
> <Molecule Name>
CVD-0007546

> <SMILES>
Cc1cn(C2OC(CO)C=C2)c(=O)[nH]c1=O

$$$$

  CDD

  0  0  0  0  0  0            999 V2000
M  END
> <Molecule Name>
CVD-0007545

> <SMILES>
COc1cc(O)c2c(c1)oc(cc2=O)-c1ccc(O)cc1

$$$$

  CDD

  0  0  0  0  0  0            999 V2000
M  END
> <Molecule Name>
CVD-0007544

> <SMILES>
OC(=O)CCc1ccc(O)cc1

$$$$

  CDD

  0  0  0  0  0  0            999 V2000
M  END
> <Molecule Name>
CVD-0007543

> <SMILES>
Nc1ccn(C2CCC(CO)O2)c(=O)n1

$$$$

  CDD

  0  0  0  0  0  0            999 V2000
M  END
> <Molecule Name>
CVD-0007542

> <SMILES>
CCCCCCCCOC(=O)c1cc(O)c(O)c(O)c1

$$$$

  CDD

  0  0  0  0  0  0            999 V2000
M  END
> <Molecule Name>
CVD-0007541

> <SMILES>
OCC1OC(O)CC(O)C1O

$$$$

  CDD

  0  0  0  0  0  0            999 V2000
M  END
> <Molecule Name>
CVD-0007540

> <SMILES>
CC(C)=CCC(O)C1=CC(=O)c2c(O)ccc(O)c2C1=O

$$$$

  CDD

  0  0  0  0  0  0            999 V2000
M  END
> <Molecule Name>
CVD-0007539

> <SMILES>
CC1CCOC2Cn3cc(C(=O)NCc4ccc(F)cc4F)c(=O)c(O)c3C(=O)N12

$$$$

  CDD

  0  0  0  0  0  0            999 V2000
M  END
> <Molecule Name>
CVD-0007538

> <SMILES>
OCC1OC2C(Oc3nc(=O)ccn23)C1O

$$$$

  CDD

  0  0  0  0  0  0            999 V2000
M  END
> <Molecule Name>
CVD-0007537

> <SMILES>
COC1C(O)C(O)C(O)C(O)C1O

$$$$

  CDD

  0  0  0  0  0  0            999 V2000
M  END
> <Molecule Name>
CVD-0007536

> <SMILES>
COc1cc(CO)cc(OC)c1O

$$$$

  CDD

  0  0  0  0  0  0            999 V2000
M  END
> <Molecule Name>
CVD-0007535

> <SMILES>
Oc1ccc(\C=C\c2cc(O)cc(O)c2)c(O)c1

$$$$

  CDD

  0  0  0  0  0  0            999 V2000
M  END
> <Molecule Name>
CVD-0007534

> <SMILES>
Nc1ccn(C2CSC(CO)O2)c(=O)n1

$$$$

  CDD

  0  0  0  0  0  0            999 V2000
M  END
> <Molecule Name>
CVD-0007533

> <SMILES>
Cc1cn(C2CC(O)C(CO)O2)c(=O)[nH]c1=O

$$$$

  CDD

  0  0  0  0  0  0            999 V2000
M  END
> <Molecule Name>
CVD-0007532

> <SMILES>
COc1cc(O)c(CC=C(C)C)c2OC(CC(=O)c12)c1ccc(O)cc1

$$$$

  CDD

  0  0  0  0  0  0            999 V2000
M  END
> <Molecule Name>
CVD-0007531

> <SMILES>
CC(=O)Nc1nc(C)c(s1)-c1ccc(Cl)c(c1)S(=O)(=O)NCCO

$$$$

  CDD

  0  0  0  0  0  0            999 V2000
M  END
> <Molecule Name>
CVD-0007530

> <SMILES>
Nc1nc(=O)n(cc1F)C1CSC(CO)O1

$$$$

  CDD

  0  0  0  0  0  0            999 V2000
M  END
> <Molecule Name>
CVD-0007529

> <SMILES>
OCC1OC(CC1O)n1cc(\C=C\Br)c(=O)[nH]c1=O

$$$$

  CDD

  0  0  0  0  0  0            999 V2000
M  END
> <Molecule Name>
CVD-0007528

> <SMILES>
Oc1ccc(cc1)-c1cc(=O)c2c(O)c(O)c(O)cc2o1

$$$$

  CDD

  0  0  0  0  0  0            999 V2000
M  END
> <Molecule Name>
CVD-0007527

> <SMILES>
Cc1cn(C2OC(CO)C(O)C2F)c(=O)[nH]c1=O

$$$$

  CDD

  0  0  0  0  0  0            999 V2000
M  END
> <Molecule Name>
CVD-0007526

> <SMILES>
OCc1cc(O)c2C(=O)c3c(O)cccc3C(=O)c2c1

$$$$

  CDD

  0  0  0  0  0  0            999 V2000
M  END
> <Molecule Name>
CVD-0007525

> <SMILES>
CC(=O)C1C(=O)C=C2Oc3c(c(O)c(C)c(O)c3C(C)=O)C2(C)C1=O

$$$$

  CDD

  0  0  0  0  0  0            999 V2000
M  END
> <Molecule Name>
CVD-0007524

> <SMILES>
OCC1CCC(O1)n1cnc2c1nc[nH]c2=O

$$$$

  CDD

  0  0  0  0  0  0            999 V2000
M  END
> <Molecule Name>
CVD-0007523

> <SMILES>
CCOCc1nc2c(N)nc3ccccc3c2n1CC(C)(C)O

$$$$

  CDD

  0  0  0  0  0  0            999 V2000
M  END
> <Molecule Name>
CVD-0007522

> <SMILES>
OCC1OC2C(Oc3nc(=N)ccn23)C1O

$$$$

  CDD

  0  0  0  0  0  0            999 V2000
M  END
> <Molecule Name>
CVD-0007521

> <SMILES>
COc1ccc(CC2COC(=O)C2Cc2ccc(O)c(OC)c2)cc1OC

$$$$

  CDD

  0  0  0  0  0  0            999 V2000
M  END
> <Molecule Name>
CVD-0007520

> <SMILES>
CC(C)=CCC(OC(C)=O)C1=CC(=O)c2c(O)ccc(O)c2C1=O

$$$$

  CDD

  0  0  0  0  0  0            999 V2000
M  END
> <Molecule Name>
CVD-0007519

> <SMILES>
OCC1OC(CC1O)n1cc(I)c(=O)[nH]c1=O

$$$$

  CDD

  0  0  0  0  0  0            999 V2000
M  END
> <Molecule Name>
CVD-0007518

> <SMILES>
CC1(F)C(O)C(CO)OC1n1ccc(=O)[nH]c1=O

$$$$

  CDD

  0  0  0  0  0  0            999 V2000
M  END
> <Molecule Name>
CVD-0007517

> <SMILES>
OCC1OC(C(O)C1O)n1cnc2c1nc[nH]c2=O

$$$$

  CDD

  0  0  0  0  0  0            999 V2000
M  END
> <Molecule Name>
CVD-0007516

> <SMILES>
OCC1OC(OC2OC=CC3C(O)C=C(CO)C23)C(O)C(O)C1O

$$$$

  CDD

  0  0  0  0  0  0            999 V2000
M  END
> <Molecule Name>
CVD-0007515

> <SMILES>
Nc1nc(=O)c2ncn(C3CC(O)C(CO)C3=C)c2[nH]1

$$$$

  CDD

  0  0  0  0  0  0            999 V2000
M  END
> <Molecule Name>
CVD-0007514

> <SMILES>
C[C@@H]1C[C@H]2[C@@H]3CCC4=CC(=O)C=C[C@]4(C)[C@@]3(F)[C@@H](O)C[C@]2(C)[C@@]1(O)C(=O)CO

$$$$

  CDD

  0  0  0  0  0  0            999 V2000
M  END
> <Molecule Name>
CVD-0007513

> <SMILES>
CNC(=S)NCCCCc1c[nH]cn1

$$$$

  CDD

  0  0  0  0  0  0            999 V2000
M  END
> <Molecule Name>
CVD-0007512

> <SMILES>
CN=C(NCCSCc1nc[nH]c1C)NC#N

$$$$

  CDD

  0  0  0  0  0  0            999 V2000
M  END
> <Molecule Name>
CVD-0007511

> <SMILES>
CNC(NCCSCc1ccc(CN(C)C)o1)=C[N+]([O-])=O

$$$$

  CDD

  0  0  0  0  0  0            999 V2000
M  END
> <Molecule Name>
CVD-0007510

> <SMILES>
NC(N)=Nc1nc(CSCCC(N)=NS(N)(=O)=O)cs1

$$$$

  CDD

  0  0  0  0  0  0            999 V2000
M  END
> <Molecule Name>
CVD-0007509

> <SMILES>
Cc1ccncc1N(CC#N)C(=O)Cc1cccc(Cl)c1

$$$$

  CDD

  0  0  0  0  0  0            999 V2000
M  END
> <Molecule Name>
CVD-0007508

> <SMILES>
Cc1ccncc1N(CC=O)C(=O)Cc1cccc(Cl)c1

$$$$

  CDD

  0  0  0  0  0  0            999 V2000
M  END
> <Molecule Name>
CVD-0007507

> <SMILES>
C=CC(=O)NCCCNc1cccc2cnccc12

$$$$

  CDD

  0  0  0  0  0  0            999 V2000
M  END
> <Molecule Name>
CVD-0007506

> <SMILES>
C=CC(=O)Nc1ccnc(NC(=O)Cc2ccc3ccccc3c2)c1

$$$$

  CDD

  0  0  0  0  0  0            999 V2000
M  END
> <Molecule Name>
CVD-0007505

> <SMILES>
Cc1ccncc1Nc1ccccc1NC(=O)C=C

$$$$

  CDD

  0  0  0  0  0  0            999 V2000
M  END
> <Molecule Name>
CVD-0007504

> <SMILES>
CC(=O)NCCc1c[nH]c2c(NCCNC(=O)C=C)cc(F)cc12

$$$$

  CDD

  0  0  0  0  0  0            999 V2000
M  END
> <Molecule Name>
CVD-0007503

> <SMILES>
NC(=O)[C@H]1C(CC[C@H]1c1ccsc1)NC(=O)C=C

$$$$

  CDD

  0  0  0  0  0  0            999 V2000
M  END
> <Molecule Name>
CVD-0007502

> <SMILES>
NC(=O)[C@H]1CCC(NC(=O)C=C)[C@H]1c1ccsc1

$$$$

  CDD

  0  0  0  0  0  0            999 V2000
M  END
> <Molecule Name>
CVD-0007501

> <SMILES>
C=CC(=O)Nc1cncc2ccccc12

$$$$

  CDD

  0  0  0  0  0  0            999 V2000
M  END
> <Molecule Name>
CVD-0007500

> <SMILES>
C=CC(=O)NCc1cc2ccccc2cn1

$$$$

  CDD

  0  0  0  0  0  0            999 V2000
M  END
> <Molecule Name>
CVD-0007499

> <SMILES>
C=CC(=O)NCc1cnccc1CCNC(=O)NC1CCCCC1

$$$$

  CDD

  0  0  0  0  0  0            999 V2000
M  END
> <Molecule Name>
CVD-0007498

> <SMILES>
O=C1C=CC2Cc3cc4OCOc4cc3CN12

$$$$

  CDD

  0  0  0  0  0  0            999 V2000
M  END
> <Molecule Name>
CVD-0007497

> <SMILES>
C=CC(=O)N1CCc2cc3OCOc3cc2C1

$$$$

  CDD

  0  0  0  0  0  0            999 V2000
M  END
> <Molecule Name>
CVD-0007496

> <SMILES>
ClCC(=O)N1CCc2cc3OCOc3cc2C1

$$$$

  CDD

  0  0  0  0  0  0            999 V2000
M  END
> <Molecule Name>
CVD-0007495

> <SMILES>
O=C1CC2N(Cc3ccc4OCOc4c3)CCC2=C1

$$$$

  CDD

  0  0  0  0  0  0            999 V2000
M  END
> <Molecule Name>
CVD-0007494

> <SMILES>
ClCC(=O)N1Cc2cc3OCOc3cc2C1

$$$$

  CDD

  0  0  0  0  0  0            999 V2000
M  END
> <Molecule Name>
CVD-0007493

> <SMILES>
O=C1C=CC(=O)N1Cc1ccc2OCOc2c1

$$$$

  CDD

  0  0  0  0  0  0            999 V2000
M  END
> <Molecule Name>
CVD-0007492

> <SMILES>
O=C1C=CCN1Cc1ccc2OCOc2c1

$$$$

  CDD

  0  0  0  0  0  0            999 V2000
M  END
> <Molecule Name>
CVD-0007491

> <SMILES>
C1Oc2cc3CN4CCC5=CC6OC6C(C45)c3cc2O1

$$$$

  CDD

  0  0  0  0  0  0            999 V2000
M  END
> <Molecule Name>
CVD-0007490

> <SMILES>
O=C(N1CCC2=CC(=O)CCC12)c1ccc2OCOc2c1

$$$$

  CDD

  0  0  0  0  0  0            999 V2000
M  END
> <Molecule Name>
CVD-0007489

> <SMILES>
C=CC(=O)N1Cc2cc3OCOc3cc2C1

$$$$

  CDD

  0  0  0  0  0  0            999 V2000
M  END
> <Molecule Name>
CVD-0007488

> <SMILES>
C=CC(=O)NCc1ccc2OCOc2c1

$$$$

  CDD

  0  0  0  0  0  0            999 V2000
M  END
> <Molecule Name>
CVD-0007487

> <SMILES>
O=C1CCC2N(Cc3ccc4OCOc4c3)CCC2=C1

$$$$

  CDD

  0  0  0  0  0  0            999 V2000
M  END
> <Molecule Name>
CVD-0007486

> <SMILES>
O=C1CC2C3N(CCC3=C1)Cc1cc3OCOc3cc21

$$$$

  CDD

  0  0  0  0  0  0            999 V2000
M  END
> <Molecule Name>
CVD-0007485

> <SMILES>
OC1C2C3N(CCC3=CC1=O)Cc1cc3OCOc3cc21

$$$$

  CDD

  0  0  0  0  0  0            999 V2000
M  END
> <Molecule Name>
CVD-0007484

> <SMILES>
OC1C=C2CCN3Cc4cc5OCOc5cc4C(C23)C1O

$$$$

  CDD

  0  0  0  0  0  0            999 V2000
M  END
> <Molecule Name>
CVD-0007483

> <SMILES>
Nc1ccn(C2OC(CO)C(O)C2(F)F)c(=O)n1

$$$$

  CDD

  0  0  0  0  0  0            999 V2000
M  END
> <Molecule Name>
CVD-0007482

> <SMILES>
Cc1cc(O)c2C(=O)c3c(O)cc(O)cc3C(=O)c2c1

$$$$

  CDD

  0  0  0  0  0  0            999 V2000
M  END
> <Molecule Name>
CVD-0007481

> <SMILES>
C[C@@H]1CN(CCN1Cc1ccc(cc1)C1CC1)C(=O)C=C

$$$$

  CDD

  0  0  0  0  0  0            999 V2000
M  END
> <Molecule Name>
CVD-0007480

> <SMILES>
CC(C)C[C@@H]1CN(CCN1Cc1ccc(OC(F)(F)F)cc1)C(=O)C=C

$$$$

  CDD

  0  0  0  0  0  0            999 V2000
M  END
> <Molecule Name>
CVD-0007479

> <SMILES>
C[C@H](CS)C(=O)N1CCC[C@H]1C(O)=O

$$$$

  CDD

  0  0  0  0  0  0            999 V2000
M  END
> <Molecule Name>
CVD-0007478

> <SMILES>
CS(=O)(=O)c1ccc(c(n1)C#N)C(F)(F)F

$$$$

  CDD

  0  0  0  0  0  0            999 V2000
M  END
> <Molecule Name>
CVD-0007477

> <SMILES>
CS(=O)(=O)C1CCC(CF)C(C1)C#N

$$$$

  CDD

  0  0  0  0  0  0            999 V2000
M  END
> <Molecule Name>
CVD-0007476

> <SMILES>
CCN(CC(=O)N1CCN(CC1C#N)S(=O)(=O)C1C=CC=C1C(F)(F)F)C(=O)C=C

$$$$

  CDD

  0  0  0  0  0  0            999 V2000
M  END
> <Molecule Name>
CVD-0007475

> <SMILES>
CCN(CC(=O)N1CCN(CC1C#N)S(=O)(=O)c1ccccc1C(F)(F)F)C(=O)C=C

$$$$

  CDD

  0  0  0  0  0  0            999 V2000
M  END
> <Molecule Name>
CVD-0007474

> <SMILES>
CCc1ccc(CN2CCN(CC2)C(=O)C=C)s1

$$$$

  CDD

  0  0  0  0  0  0            999 V2000
M  END
> <Molecule Name>
CVD-0007473

> <SMILES>
NS(=O)(=O)c1cccc2CN(CCc12)C(=O)C1CCN(CC1)C(=O)C=C

$$$$

  CDD

  0  0  0  0  0  0            999 V2000
M  END
> <Molecule Name>
CVD-0007472

> <SMILES>
Clc1ncccc1C(=O)N1CCN(CC1)C(=O)CCNC(=O)C=C

$$$$

  CDD

  0  0  0  0  0  0            999 V2000
M  END
> <Molecule Name>
CVD-0007471

> <SMILES>
Cc1ccccc1CC(=O)N1CCN(CC1)C(=O)C1CCN(CC1)C(=O)C=C

$$$$

  CDD

  0  0  0  0  0  0            999 V2000
M  END
> <Molecule Name>
CVD-0007470

> <SMILES>
Clc1ccc(Cn2nccc2NC(=O)C2CCN(CC2)C(=O)C=C)s1

$$$$

  CDD

  0  0  0  0  0  0            999 V2000
M  END
> <Molecule Name>
CVD-0007469

> <SMILES>
CC(C)(C)c1ccc(cc1)S(=O)(=O)N1CCN(CC1)C(=O)C=C

$$$$

  CDD

  0  0  0  0  0  0            999 V2000
M  END
> <Molecule Name>
CVD-0007468

> <SMILES>
C=CC(=O)N1CCN(Cc2cccnc2)CC1

$$$$

  CDD

  0  0  0  0  0  0            999 V2000
M  END
> <Molecule Name>
CVD-0007467

> <SMILES>
Cc1cc(c(C)s1)S(=O)(=O)N1CCN(CC1)C(=O)C1CCN(CC1)C(=O)C=C

$$$$

  CDD

  0  0  0  0  0  0            999 V2000
M  END
> <Molecule Name>
CVD-0007466

> <SMILES>
CCN(CC(=O)N1CCN(CC1)S(=O)(=O)c1ccccc1C(F)(F)F)C(=O)C=C

$$$$

  CDD

  0  0  0  0  0  0            999 V2000
M  END
> <Molecule Name>
CVD-0007465

> <SMILES>
Clc1cccc(CC(=O)N2CCN(CC2)C(=O)C=C)c1

$$$$

  CDD

  0  0  0  0  0  0            999 V2000
M  END
> <Molecule Name>
CVD-0007464

> <SMILES>
CC(=C)C1CCC(C)=CC1

$$$$

  CDD

  0  0  0  0  0  0            999 V2000
M  END
> <Molecule Name>
CVD-0007463

> <SMILES>
CC(=O)NCC[C@H]1COc2c1cc(Cl)cc2N(CCC1CCCCC1)C(=O)Nc1cnccc1C

$$$$

  CDD

  0  0  0  0  0  0            999 V2000
M  END
> <Molecule Name>
CVD-0007462

> <SMILES>
CC(=O)NCC[C@H]1COc2c1cc(Cl)cc2CC(=O)Nc1cnccc1C

$$$$

  CDD

  0  0  0  0  0  0            999 V2000
M  END
> <Molecule Name>
CVD-0007461

> <SMILES>
CC(=O)NCC[C@H]1COc2c1cc(Cl)cc2NC(=O)Nc1cnccc1C

$$$$

  CDD

  0  0  0  0  0  0            999 V2000
M  END
> <Molecule Name>
CVD-0007460

> <SMILES>
CC(=O)NCC[C@H]1COc2c1cc(Cl)cc2NC(=O)Cc1cnccc1C

$$$$

  CDD

  0  0  0  0  0  0            999 V2000
M  END
> <Molecule Name>
CVD-0007459

> <SMILES>
COc1cc2nnn(CC(=O)NC3(CC(N)=O)CCc4cccnc34)c2cc1OC

$$$$

  CDD

  0  0  0  0  0  0            999 V2000
M  END
> <Molecule Name>
CVD-0007458

> <SMILES>
COc1cc2nnn(CC(=O)NC(CC(N)=O)c3cccn3C)c2cc1OC

$$$$

  CDD

  0  0  0  0  0  0            999 V2000
M  END
> <Molecule Name>
CVD-0007457

> <SMILES>
COc1cc2nnn(CC(=O)NC(C(=O)N3CCCC3)c3ccccn3)c2cc1OC

$$$$

  CDD

  0  0  0  0  0  0            999 V2000
M  END
> <Molecule Name>
CVD-0007456

> <SMILES>
COc1cc2nnn(CC(=O)NCc3ccn(C)c3)c2cc1OC

$$$$

  CDD

  0  0  0  0  0  0            999 V2000
M  END
> <Molecule Name>
CVD-0007455

> <SMILES>
Fc1cccc(c1)C(=O)N1CCCN(CC1)C(=O)C=C

$$$$

  CDD

  0  0  0  0  0  0            999 V2000
M  END
> <Molecule Name>
CVD-0007454

> <SMILES>
C=CC(=O)N1CCC(CC1)C(=O)N1CC(c2ccccc2)c2ccccc2C1

$$$$

  CDD

  0  0  0  0  0  0            999 V2000
M  END
> <Molecule Name>
CVD-0007453

> <SMILES>
C=CC(=O)NC1CCN(Cc2cccs2)CC1

$$$$

  CDD

  0  0  0  0  0  0            999 V2000
M  END
> <Molecule Name>
CVD-0007452

> <SMILES>
NS(=O)(=O)c1ccc(CCNC(=O)C=C)cc1

$$$$

  CDD

  0  0  0  0  0  0            999 V2000
M  END
> <Molecule Name>
CVD-0007451

> <SMILES>
Clc1ccc(CN2CCN(CC2)C(=O)C=C)cc1

$$$$

  CDD

  0  0  0  0  0  0            999 V2000
M  END
> <Molecule Name>
CVD-0007450

> <SMILES>
CCN(CC(=O)N1CCN(CC1)c1ccccc1[N+]([O-])=O)C(=O)C=C

$$$$

  CDD

  0  0  0  0  0  0            999 V2000
M  END
> <Molecule Name>
CVD-0007449

> <SMILES>
CC(NC(=O)C1CCN(CC1)C(=O)C=C)c1cccc(c1)S(N)(=O)=O

$$$$

  CDD

  0  0  0  0  0  0            999 V2000
M  END
> <Molecule Name>
CVD-0007448

> <SMILES>
Fc1ccc(cc1Cl)C1CN(CCO1)C(=O)CCNC(=O)C=C

$$$$

  CDD

  0  0  0  0  0  0            999 V2000
M  END
> <Molecule Name>
CVD-0007447

> <SMILES>
C=CC(=O)Nc1ccc(cc1)S(=O)(=O)N1CCCC1

$$$$

  CDD

  0  0  0  0  0  0            999 V2000
M  END
> <Molecule Name>
CVD-0007446

> <SMILES>
C=CC(=O)N1CCN(Cc2ccccc2)CC1

$$$$

  CDD

  0  0  0  0  0  0            999 V2000
M  END
> <Molecule Name>
CVD-0007445

> <SMILES>
Clc1ccc(Cl)c(c1)C(=O)CSC1=NCCS1

$$$$

  CDD

  0  0  0  0  0  0            999 V2000
M  END
> <Molecule Name>
CVD-0007444

> <SMILES>
CCn1c(CSc2nc(C)c(C)n2CC2CCCO2)nc2cc(ccc12)S(=O)(=O)N(C)C

$$$$

  CDD

  0  0  0  0  0  0            999 V2000
M  END
> <Molecule Name>
CVD-0007443

> <SMILES>
Oc1cn(nc1C(=O)N1CCN(CC1)C(=O)c1ccccc1)-c1ccccc1C(F)(F)F

$$$$

  CDD

  0  0  0  0  0  0            999 V2000
M  END
> <Molecule Name>
CVD-0007442

> <SMILES>
NC1=Nc2nc3ccccc3n2C(N1)c1ccc(o1)-c1nc2ccccc2s1

$$$$

  CDD

  0  0  0  0  0  0            999 V2000
M  END
> <Molecule Name>
CVD-0007441

> <SMILES>
Sc1nc2ccccc2c2nc(CCc3ccccc3)nn12

$$$$

  CDD

  0  0  0  0  0  0            999 V2000
M  END
> <Molecule Name>
CVD-0007440

> <SMILES>
COc1ccc(cc1)C(=O)Nc1cccc(\C=C2\C(=O)NC(=O)c3ccccc23)c1

$$$$

  CDD

  0  0  0  0  0  0            999 V2000
M  END
> <Molecule Name>
CVD-0007439

> <SMILES>
CCOC(=O)c1nc(ncc1Cl)S(C)(=O)=O

$$$$

  CDD

  0  0  0  0  0  0            999 V2000
M  END
> <Molecule Name>
CVD-0007438

> <SMILES>
CS(=O)(=O)c1ncc(Cl)c(n1)C(=O)Nc1ccccc1Cc1ccccc1

$$$$

  CDD

  0  0  0  0  0  0            999 V2000
M  END
> <Molecule Name>
CVD-0007437

> <SMILES>
CCOc1ccccc1\C=C1\C(=O)NC(=O)c2ccccc12

$$$$

  CDD

  0  0  0  0  0  0            999 V2000
M  END
> <Molecule Name>
CVD-0007436

> <SMILES>
CS(=O)(=O)c1oc(nc1S(=O)(=O)c1ccc(Cl)cc1)-c1ccc(F)cc1

$$$$

  CDD

  0  0  0  0  0  0            999 V2000
M  END
> <Molecule Name>
CVD-0007435

> <SMILES>
Oc1ccc(\C=C2\C(=O)N(Cc3ccc4OCOc4c3)C(=O)c3ccccc23)cc1

$$$$

  CDD

  0  0  0  0  0  0            999 V2000
M  END
> <Molecule Name>
CVD-0007434

> <SMILES>
Fc1ccccc1S(=O)(=O)N1CCN(CC1)C(=O)C1CCN(CC1)C(=O)CCl

$$$$

  CDD

  0  0  0  0  0  0            999 V2000
M  END
> <Molecule Name>
CVD-0007433

> <SMILES>
ClCC(=O)N1CCC(CC1)C(=O)N1CCN(CC1)S(=O)(=O)c1ccc(cc1)C1CCCCC1

$$$$

  CDD

  0  0  0  0  0  0            999 V2000
M  END
> <Molecule Name>
CVD-0007432

> <SMILES>
ClCC(=O)N1CCC(CC1)C(=O)N(CC(=O)N([C@@H]1CS(=O)(=O)C=C1)c1ccccc1)c1ccc2ccccc2c1

$$$$

  CDD

  0  0  0  0  0  0            999 V2000
M  END
> <Molecule Name>
CVD-0007431

> <SMILES>
Cc1ccc(cc1S(=O)(=O)N1CCN(CC1)C(=O)C1CCN(CC1)C(=O)CCl)S(C)(=O)=O

$$$$

  CDD

  0  0  0  0  0  0            999 V2000
M  END
> <Molecule Name>
CVD-0007430

> <SMILES>
ClCC(=O)N1CCC(CC1)C(=O)N1CCN(CC1)S(=O)(=O)c1ccc2CCCc2c1

$$$$

  CDD

  0  0  0  0  0  0            999 V2000
M  END
> <Molecule Name>
CVD-0007429

> <SMILES>
[O-][N+](=O)c1ccc(cc1)S(=O)(=O)N1CCN(CC1)C(=O)C1CCN(CC1)C(=O)CCl

$$$$

  CDD

  0  0  0  0  0  0            999 V2000
M  END
> <Molecule Name>
CVD-0007428

> <SMILES>
Cc1cnc2c(cccc2c1)S(=O)(=O)N1CCN(CC1)C(=O)C1CCN(CC1)C(=O)CCl

$$$$

  CDD

  0  0  0  0  0  0            999 V2000
M  END
> <Molecule Name>
CVD-0007427

> <SMILES>
[O-][N+](=O)c1ccccc1-c1ccc(CN2CCN(CC2)C(=O)C2CCN(CC2)C(=O)CCl)s1

$$$$

  CDD

  0  0  0  0  0  0            999 V2000
M  END
> <Molecule Name>
CVD-0007426

> <SMILES>
Cc1ccc(cc1)S(=O)(=O)N1CCCN(CC1)C(=O)C1CCN(CC1)C(=O)CCl

$$$$

  CDD

  0  0  0  0  0  0            999 V2000
M  END
> <Molecule Name>
CVD-0007425

> <SMILES>
[O-][N+](=O)c1cc(ccc1N1CCN(CC1)C(=O)C1CCN(CC1)C(=O)CCl)S(=O)(=O)N1CCOCC1

$$$$

  CDD

  0  0  0  0  0  0            999 V2000
M  END
> <Molecule Name>
CVD-0007424

> <SMILES>
Cc1nc2CCN(CCc2c(=O)[nH]1)C(=O)CCc1cccnc1

$$$$

  CDD

  0  0  0  0  0  0            999 V2000
M  END
> <Molecule Name>
CVD-0007423

> <SMILES>
Cn1ncc2c1nc(CN1CCCC(C1)OCc1ccccn1)[nH]c2=O

$$$$

  CDD

  0  0  0  0  0  0            999 V2000
M  END
> <Molecule Name>
CVD-0007422

> <SMILES>
Cc1nc2CN(Cc2c(=O)[nH]1)C(=O)Cc1ccccn1

$$$$

  CDD

  0  0  0  0  0  0            999 V2000
M  END
> <Molecule Name>
CVD-0007421

> <SMILES>
CCOc1ncccc1C(=O)NCCc1nc2ccccc2c(=O)[nH]1

$$$$

  CDD

  0  0  0  0  0  0            999 V2000
M  END
> <Molecule Name>
CVD-0007420

> <SMILES>
CC(NC(=O)Cc1c(C)nc(C)[nH]c1=O)c1cnn(c1C)-c1ccccn1

$$$$

  CDD

  0  0  0  0  0  0            999 V2000
M  END
> <Molecule Name>
CVD-0007419

> <SMILES>
Cn1ncc2c1nc(CN1CCCC(C1)C(=O)c1ccccn1)[nH]c2=O

$$$$

  CDD

  0  0  0  0  0  0            999 V2000
M  END
> <Molecule Name>
CVD-0007418

> <SMILES>
O=C1CCC(CN(Cc2ccccn2)Cc2nc3ccsc3c(=O)[nH]2)N1

$$$$

  CDD

  0  0  0  0  0  0            999 V2000
M  END
> <Molecule Name>
CVD-0007417

> <SMILES>
Cc1nc(C)c(CC(=O)N2CCN(CC2)c2ccc(Cl)cn2)c(=O)[nH]1

$$$$

  CDD

  0  0  0  0  0  0            999 V2000
M  END
> <Molecule Name>
CVD-0007416

> <SMILES>
CN(CC(=O)NCc1nc2ccccc2c(=O)[nH]1)Cc1cccnc1

$$$$

  CDD

  0  0  0  0  0  0            999 V2000
M  END
> <Molecule Name>
CVD-0007415

> <SMILES>
Cc1nc2CCN(CCc2c(=O)n1C)S(=O)(=O)c1cccnc1

$$$$

  CDD

  0  0  0  0  0  0            999 V2000
M  END
> <Molecule Name>
CVD-0007414

> <SMILES>
CCc1nc(C)c(CC(=O)NCCc2ccncc2)c(=O)[nH]1

$$$$

  CDD

  0  0  0  0  0  0            999 V2000
M  END
> <Molecule Name>
CVD-0007413

> <SMILES>
CCc1nc(C)c(CC(=O)N(C)Cc2ccc3ncccc3c2)c(=O)[nH]1

$$$$

  CDD

  0  0  0  0  0  0            999 V2000
M  END
> <Molecule Name>
CVD-0007412

> <SMILES>
Cc1nc2CN(Cc2c(=O)n1C)C(=O)CCc1cccnc1

$$$$

  CDD

  0  0  0  0  0  0            999 V2000
M  END
> <Molecule Name>
CVD-0007411

> <SMILES>
Cc1ccn2c(F)c(nc2c1)C(=O)NCCc1nc(C)cc(=O)[nH]1

$$$$

  CDD

  0  0  0  0  0  0            999 V2000
M  END
> <Molecule Name>
CVD-0007410

> <SMILES>
CN(Cc1nc2ccccc2c(=O)[nH]1)C(=O)c1cnn2ccccc12

$$$$

  CDD

  0  0  0  0  0  0            999 V2000
M  END
> <Molecule Name>
CVD-0007409

> <SMILES>
Cc1ccn2c(c1)nc(CN1C(=O)COc3cccnc13)cc2=O

$$$$

  CDD

  0  0  0  0  0  0            999 V2000
M  END
> <Molecule Name>
CVD-0007408

> <SMILES>
CCc1ccc2nc(C)cc(C(=O)NCCc3nc(C)cc(=O)[nH]3)c2c1

$$$$

  CDD

  0  0  0  0  0  0            999 V2000
M  END
> <Molecule Name>
CVD-0007407

> <SMILES>
Cc1ccc2nc(C)cc(C(=O)NCCc3nc(C)cc(=O)[nH]3)c2c1

$$$$

  CDD

  0  0  0  0  0  0            999 V2000
M  END
> <Molecule Name>
CVD-0007406

> <SMILES>
Cc1nc(C)c(CC(=O)N2CCCC(C2)c2nnc3ccccn23)c(=O)[nH]1

$$$$

  CDD

  0  0  0  0  0  0            999 V2000
M  END
> <Molecule Name>
CVD-0007405

> <SMILES>
Cc1nc2CCN(Cc3ccc4cccc(Cl)c4n3)CCc2c(=O)[nH]1

$$$$

  CDD

  0  0  0  0  0  0            999 V2000
M  END
> <Molecule Name>
CVD-0007404

> <SMILES>
Cc1sc2nc(CCNC(=O)CNc3cccnc3)[nH]c(=O)c2c1C

$$$$

  CDD

  0  0  0  0  0  0            999 V2000
M  END
> <Molecule Name>
CVD-0007403

> <SMILES>
CN(CC(=O)NCCc1nc(C)cc(=O)[nH]1)Cc1ccccn1

$$$$

  CDD

  0  0  0  0  0  0            999 V2000
M  END
> <Molecule Name>
CVD-0007402

> <SMILES>
Cc1ccc(nc1)C1(O)CCN(Cc2nc3ccsc3c(=O)[nH]2)CC1

$$$$

  CDD

  0  0  0  0  0  0            999 V2000
M  END
> <Molecule Name>
CVD-0007401

> <SMILES>
O=C(NCc1cnc2ccccn12)c1cnc2ccccn2c1=O

$$$$

  CDD

  0  0  0  0  0  0            999 V2000
M  END
> <Molecule Name>
CVD-0007400

> <SMILES>
CC(C)C(NC(=O)c1nc2ccccc2c(=O)[nH]1)c1cccnc1

$$$$

  CDD

  0  0  0  0  0  0            999 V2000
M  END
> <Molecule Name>
CVD-0007399

> <SMILES>
CCC(NC(=O)c1cnc(C)[nH]c1=O)c1ccncc1

$$$$

  CDD

  0  0  0  0  0  0            999 V2000
M  END
> <Molecule Name>
CVD-0007398

> <SMILES>
Cc1ccc2nc(CN3Cc4nc(C)n(C)c(=O)c4C3)cc(O)c2c1

$$$$

  CDD

  0  0  0  0  0  0            999 V2000
M  END
> <Molecule Name>
CVD-0007397

> <SMILES>
CN(Cc1nc2ccccc2c(=O)[nH]1)C(=O)Cc1cnc2c(C)cccn12

$$$$

  CDD

  0  0  0  0  0  0            999 V2000
M  END
> <Molecule Name>
CVD-0007396

> <SMILES>
CC(NC(=O)c1cnc(C)[nH]c1=O)c1ccc(C)nc1

$$$$

  CDD

  0  0  0  0  0  0            999 V2000
M  END
> <Molecule Name>
CVD-0007395

> <SMILES>
O=C(NCc1nc2ccccc2c(=O)[nH]1)C(N1CCCC1)c1cccnc1

$$$$

  CDD

  0  0  0  0  0  0            999 V2000
M  END
> <Molecule Name>
CVD-0007394

> <SMILES>
Cc1cc(=O)[nH]c(CCNC(=O)c2ccc3nccn3c2)n1

$$$$

  CDD

  0  0  0  0  0  0            999 V2000
M  END
> <Molecule Name>
CVD-0007393

> <SMILES>
COc1cc(ccn1)C(=O)NCCc1nc(C)cc(=O)[nH]1

$$$$

  CDD

  0  0  0  0  0  0            999 V2000
M  END
> <Molecule Name>
CVD-0007392

> <SMILES>
OC1CN(CC1Cc1ccccn1)C(=O)c1nc2ccccc2c(=O)[nH]1

$$$$

  CDD

  0  0  0  0  0  0            999 V2000
M  END
> <Molecule Name>
CVD-0007391

> <SMILES>
Cc1ccc2nc(C(=O)NCCc3nc(C)cc(=O)[nH]3)c(F)n2c1

$$$$

  CDD

  0  0  0  0  0  0            999 V2000
M  END
> <Molecule Name>
CVD-0007390

> <SMILES>
CC(Cc1cccnc1)NC(=O)Cc1c(C)nc(C)[nH]c1=O

$$$$

  CDD

  0  0  0  0  0  0            999 V2000
M  END
> <Molecule Name>
CVD-0007389

> <SMILES>
CCC(N(C)C(=O)NCCc1nc(C)cc(=O)[nH]1)c1cccnc1

$$$$

  CDD

  0  0  0  0  0  0            999 V2000
M  END
> <Molecule Name>
CVD-0007388

> <SMILES>
Cc1nc2CN(CCc2c(=O)[nH]1)C(=O)CCc1cccnc1

$$$$

  CDD

  0  0  0  0  0  0            999 V2000
M  END
> <Molecule Name>
CVD-0007387

> <SMILES>
CCc1nc(C)c(CC(=O)NC2CCCN(Cc3cccnc3)C2)c(=O)[nH]1

$$$$

  CDD

  0  0  0  0  0  0            999 V2000
M  END
> <Molecule Name>
CVD-0007386

> <SMILES>
OCCN1CCN(Cc2ccc(cc2)-c2nc(cc(=O)[nH]2)-c2ccncc2)CC1

$$$$

  CDD

  0  0  0  0  0  0            999 V2000
M  END
> <Molecule Name>
CVD-0007385

> <SMILES>
CN(Cc1cccnc1Cl)C(=O)CC1(C)N2C=CC=CC2=NC1=O

$$$$

  CDD

  0  0  0  0  0  0            999 V2000
M  END
> <Molecule Name>
CVD-0007384

> <SMILES>
COc1ccc(cn1)N1CCN(Cc2cc(=O)n3cc(Cl)ccc3n2)CC1

$$$$

  CDD

  0  0  0  0  0  0            999 V2000
M  END
> <Molecule Name>
CVD-0007383

> <SMILES>
Cc1nc(CCNC(=O)C2CCCN(C2)c2ccccn2)cc(=O)[nH]1

$$$$

  CDD

  0  0  0  0  0  0            999 V2000
M  END
> <Molecule Name>
CVD-0007382

> <SMILES>
Cc1sc2nc(CCNC(=O)CSc3ccccn3)[nH]c(=O)c2c1C

$$$$

  CDD

  0  0  0  0  0  0            999 V2000
M  END
> <Molecule Name>
CVD-0007381

> <SMILES>
Cc1ncc(CO)c(CN2CCc3nc(C)n(C)c(=O)c3CC2)c1O

$$$$

  CDD

  0  0  0  0  0  0            999 V2000
M  END
> <Molecule Name>
CVD-0007380

> <SMILES>
CN(Cc1nc2ccsc2c(=O)[nH]1)c1ccc2cc[nH]c2n1

$$$$

  CDD

  0  0  0  0  0  0            999 V2000
M  END
> <Molecule Name>
CVD-0007379

> <SMILES>
CN(Cc1nc2ccccc2c(=O)[nH]1)c1nccc(n1)-c1cccnc1

$$$$

  CDD

  0  0  0  0  0  0            999 V2000
M  END
> <Molecule Name>
CVD-0007378

> <SMILES>
CN(CC(=O)NCCc1nc(C)cc(=O)[nH]1)Cc1cccnc1

$$$$

  CDD

  0  0  0  0  0  0            999 V2000
M  END
> <Molecule Name>
CVD-0007377

> <SMILES>
CNc1ncccc1C(=O)NCCc1nc(C)cc(=O)[nH]1

$$$$

  CDD

  0  0  0  0  0  0            999 V2000
M  END
> <Molecule Name>
CVD-0007376

> <SMILES>
COc1ccnc(c1)C(=O)NCCc1nc(C)cc(=O)[nH]1

$$$$

  CDD

  0  0  0  0  0  0            999 V2000
M  END
> <Molecule Name>
CVD-0007375

> <SMILES>
O=C(NC1CCC(C1)NC(=O)c1cnc2ccccn2c1=O)c1ccncc1

$$$$

  CDD

  0  0  0  0  0  0            999 V2000
M  END
> <Molecule Name>
CVD-0007374

> <SMILES>
CC(Sc1ccccn1)C(=O)NCCc1nc2ccccc2c(=O)[nH]1

$$$$

  CDD

  0  0  0  0  0  0            999 V2000
M  END
> <Molecule Name>
CVD-0007373

> <SMILES>
CCC(NC(=O)c1cnc([nH]c1=O)C1CC1)c1ccc(C)cn1

$$$$

  CDD

  0  0  0  0  0  0            999 V2000
M  END
> <Molecule Name>
CVD-0007372

> <SMILES>
Cc1sc2nc(CCNCc3c(CO)cnc(C)c3O)[nH]c(=O)c2c1C

$$$$

  CDD

  0  0  0  0  0  0            999 V2000
M  END
> <Molecule Name>
CVD-0007371

> <SMILES>
Cc1nc2CCN(CCc2c(=O)n1C)C(=O)CCc1ccccn1

$$$$

  CDD

  0  0  0  0  0  0            999 V2000
M  END
> <Molecule Name>
CVD-0007370

> <SMILES>
Cc1nc2CN(Cc3cc(O)c4cc(F)ccc4n3)Cc2c(=O)n1C

$$$$

  CDD

  0  0  0  0  0  0            999 V2000
M  END
> <Molecule Name>
CVD-0007369

> <SMILES>
Cc1cc(=O)[nH]c(CCNC(=O)c2cccnc2O)n1

$$$$

  CDD

  0  0  0  0  0  0            999 V2000
M  END
> <Molecule Name>
CVD-0007368

> <SMILES>
Cc1cc(NCc2nc(C)cc(=O)[nH]2)nc(n1)-c1cccnc1

$$$$

  CDD

  0  0  0  0  0  0            999 V2000
M  END
> <Molecule Name>
CVD-0007367

> <SMILES>
Cc1ncc(C(=O)NCCNc2ccncc2C)c(=O)[nH]1

$$$$

  CDD

  0  0  0  0  0  0            999 V2000
M  END
> <Molecule Name>
CVD-0007366

> <SMILES>
O=C(NCc1cccn2nccc12)c1cnc2ccccn2c1=O

$$$$

  CDD

  0  0  0  0  0  0            999 V2000
M  END
> <Molecule Name>
CVD-0007365

> <SMILES>
Cc1cccn2c(CNC(=O)c3cnc([nH]c3=O)C3CC3)cnc12

$$$$

  CDD

  0  0  0  0  0  0            999 V2000
M  END
> <Molecule Name>
CVD-0007364

> <SMILES>
CN(CC(=O)N1Cc2nc(C)[nH]c(=O)c2C1)Cc1ccccn1

$$$$

  CDD

  0  0  0  0  0  0            999 V2000
M  END
> <Molecule Name>
CVD-0007363

> <SMILES>
CSc1ncccc1C(=O)NCCc1nc(C)cc(=O)[nH]1

$$$$

  CDD

  0  0  0  0  0  0            999 V2000
M  END
> <Molecule Name>
CVD-0007362

> <SMILES>
Cc1ccnc(NCCNC(=O)Cc2c(C)nc(C)[nH]c2=O)c1

$$$$

  CDD

  0  0  0  0  0  0            999 V2000
M  END
> <Molecule Name>
CVD-0007361

> <SMILES>
CCOc1ncccc1CNC(=O)c1cnc2cccc(C)n2c1=O

$$$$

  CDD

  0  0  0  0  0  0            999 V2000
M  END
> <Molecule Name>
CVD-0007360

> <SMILES>
Cc1nc2ccccn2c1CC(=O)N1Cc2nc(C)n(C)c(=O)c2C1

$$$$

  CDD

  0  0  0  0  0  0            999 V2000
M  END
> <Molecule Name>
CVD-0007359

> <SMILES>
Cc1cc(=O)[nH]c(CCNC(=O)Cc2ncccc2C)n1

$$$$

  CDD

  0  0  0  0  0  0            999 V2000
M  END
> <Molecule Name>
CVD-0007358

> <SMILES>
Cc1sc2nc(CCNc3ccc4cc[nH]c4n3)[nH]c(=O)c2c1C

$$$$

  CDD

  0  0  0  0  0  0            999 V2000
M  END
> <Molecule Name>
CVD-0007357

> <SMILES>
CCCN(Cc1cccc(c1)-c1nc(CCN)cc(=O)[nH]1)Cc1ccccn1

$$$$

  CDD

  0  0  0  0  0  0            999 V2000
M  END
> <Molecule Name>
CVD-0007356

> <SMILES>
Cc1nc(C)c(CC(=O)NCCCNc2cccnc2)c(=O)[nH]1

$$$$

  CDD

  0  0  0  0  0  0            999 V2000
M  END
> <Molecule Name>
CVD-0007355

> <SMILES>
Cc1nc(C)c(CC(=O)NC(c2ccncc2)c2ccccc2C)c(=O)[nH]1

$$$$

  CDD

  0  0  0  0  0  0            999 V2000
M  END
> <Molecule Name>
CVD-0007354

> <SMILES>
Cc1sc2nc(CCNc3cc(Cl)c4cc[nH]c4n3)[nH]c(=O)c2c1C

$$$$

  CDD

  0  0  0  0  0  0            999 V2000
M  END
> <Molecule Name>
CVD-0007353

> <SMILES>
Cc1cc(=O)[nH]c(CCNC(=O)Cc2cnc3c(C)cccn23)n1

$$$$

  CDD

  0  0  0  0  0  0            999 V2000
M  END
> <Molecule Name>
CVD-0007352

> <SMILES>
COc1ccccc1Cc1nc(CNC(=O)c2cncc(C)c2)cc(=O)[nH]1

$$$$

  CDD

  0  0  0  0  0  0            999 V2000
M  END
> <Molecule Name>
CVD-0007351

> <SMILES>
CCN1Cc2nc(OC)c(CNC(=O)c3cnc(C)[nH]c3=O)cc2C1=O

$$$$

  CDD

  0  0  0  0  0  0            999 V2000
M  END
> <Molecule Name>
CVD-0007350

> <SMILES>
CCNC(=O)c1ccc(NCc2nc3ccccc3c(=O)[nH]2)nc1

$$$$

  CDD

  0  0  0  0  0  0            999 V2000
M  END
> <Molecule Name>
CVD-0007349

> <SMILES>
CN(CC(=O)N1CCC2(CC1)N=C(C)NC2=O)Cc1ccncc1

$$$$

  CDD

  0  0  0  0  0  0            999 V2000
M  END
> <Molecule Name>
CVD-0007348

> <SMILES>
CCNC(=O)c1ccnc(NCCc2nc(C)cc(=O)[nH]2)c1

$$$$

  CDD

  0  0  0  0  0  0            999 V2000
M  END
> <Molecule Name>
CVD-0007347

> <SMILES>
Cc1nc(C)c(CC(=O)NCCNc2ccncc2C)c(=O)[nH]1

$$$$

  CDD

  0  0  0  0  0  0            999 V2000
M  END
> <Molecule Name>
CVD-0007346

> <SMILES>
OC1CN(Cc2cc(=O)n3cc(Cl)ccc3n2)CC1Cc1ccncc1

$$$$

  CDD

  0  0  0  0  0  0            999 V2000
M  END
> <Molecule Name>
CVD-0007345

> <SMILES>
O=C(NCc1cccn2nccc12)c1cnc([nH]c1=O)C1CC1

$$$$

  CDD

  0  0  0  0  0  0            999 V2000
M  END
> <Molecule Name>
CVD-0007344

> <SMILES>
O=c1cc(nc([nH]1)-c1cccc(CN2CCCCC2c2cccnc2)c1)C1CC1

$$$$

  CDD

  0  0  0  0  0  0            999 V2000
M  END
> <Molecule Name>
CVD-0007343

> <SMILES>
Cc1ccn2cc(CN3CCc4nc(C)[nH]c(=O)c4CC3)nc2c1

$$$$

  CDD

  0  0  0  0  0  0            999 V2000
M  END
> <Molecule Name>
CVD-0007342

> <SMILES>
CCc1nc(C)c(CC(=O)NC(c2cccnc2)c2ccc(C)c(C)c2)c(=O)[nH]1

$$$$

  CDD

  0  0  0  0  0  0            999 V2000
M  END
> <Molecule Name>
CVD-0007341

> <SMILES>
Cc1cc(=O)[nH]c(CCNC(=O)CCc2cccnc2)n1

$$$$

  CDD

  0  0  0  0  0  0            999 V2000
M  END
> <Molecule Name>
CVD-0007340

> <SMILES>
CCNC(=O)c1ccc(NCCc2nc3ccccc3c(=O)[nH]2)nc1

$$$$

  CDD

  0  0  0  0  0  0            999 V2000
M  END
> <Molecule Name>
CVD-0007339

> <SMILES>
Cc1nc(C)c(CC(=O)N2CCc3[nH]cnc3C2c2cccnc2)c(=O)[nH]1

$$$$

  CDD

  0  0  0  0  0  0            999 V2000
M  END
> <Molecule Name>
CVD-0007338

> <SMILES>
Cc1cccc(n1)-c1nccn1CCc1nc(C)cc(=O)[nH]1

$$$$

  CDD

  0  0  0  0  0  0            999 V2000
M  END
> <Molecule Name>
CVD-0007337

> <SMILES>
Cc1ncc(C(=O)NC2COCC2Cc2ccnc3ccccc23)c(=O)[nH]1

$$$$

  CDD

  0  0  0  0  0  0            999 V2000
M  END
> <Molecule Name>
CVD-0007336

> <SMILES>
CCc1nc(CNC(=O)Cc2cnc3ccccn23)cc(=O)[nH]1

$$$$

  CDD

  0  0  0  0  0  0            999 V2000
M  END
> <Molecule Name>
CVD-0007335

> <SMILES>
Cc1nc(C)c(CC(=O)NCCc2csc(n2)-c2ccncc2)c(=O)[nH]1

$$$$

  CDD

  0  0  0  0  0  0            999 V2000
M  END
> <Molecule Name>
CVD-0007334

> <SMILES>
O=C(NCCc1nc2ccccc2c(=O)[nH]1)C(N1CCCC1)c1cccnc1

$$$$

  CDD

  0  0  0  0  0  0            999 V2000
M  END
> <Molecule Name>
CVD-0007333

> <SMILES>
Cc1nc(C)c(CC(=O)N2CCN(Cc3ncccc3C)CC2)c(=O)[nH]1

$$$$

  CDD

  0  0  0  0  0  0            999 V2000
M  END
> <Molecule Name>
CVD-0007332

> <SMILES>
Cc1nc(C)c(CC(=O)NCc2cccn3nccc23)c(=O)[nH]1

$$$$

  CDD

  0  0  0  0  0  0            999 V2000
M  END
> <Molecule Name>
CVD-0007331

> <SMILES>
Cc1nc2CCN(CC(=O)Nc3ccc(Cl)cn3)CCc2c(=O)[nH]1

$$$$

  CDD

  0  0  0  0  0  0            999 V2000
M  END
> <Molecule Name>
CVD-0007330

> <SMILES>
Cc1nc2CN(CCc2c(=O)[nH]1)C(=O)c1ccc2c(C)cc(C)c(O)c2n1

$$$$

  CDD

  0  0  0  0  0  0            999 V2000
M  END
> <Molecule Name>
CVD-0007329

> <SMILES>
Cc1ccc(nc1)C1(O)CCN(CC1)C(=O)Cc1c(C)nc(C)[nH]c1=O

$$$$

  CDD

  0  0  0  0  0  0            999 V2000
M  END
> <Molecule Name>
CVD-0007328

> <SMILES>
O=C(NCc1nc2ccccc2c(=O)[nH]1)C1CN(Cc2ccncc2)C(=O)C1

$$$$

  CDD

  0  0  0  0  0  0            999 V2000
M  END
> <Molecule Name>
CVD-0007327

> <SMILES>
Cc1nc2CCN(Cc3cc(O)c4cccc(F)c4n3)CCc2c(=O)[nH]1

$$$$

  CDD

  0  0  0  0  0  0            999 V2000
M  END
> <Molecule Name>
CVD-0007326

> <SMILES>
Cc1cc(=O)[nH]c(CCNC(=O)C(N2CCOCC2)c2cccnc2)n1

$$$$

  CDD

  0  0  0  0  0  0            999 V2000
M  END
> <Molecule Name>
CVD-0007325

> <SMILES>
Cc1nc2CN(CCc2c(=O)[nH]1)C(=O)C(N1CCCC1)c1cccnc1

$$$$

  CDD

  0  0  0  0  0  0            999 V2000
M  END
> <Molecule Name>
CVD-0007324

> <SMILES>
Fc1ccc(cc1)C1CN(CCO1)C(=O)CN1CCN(CC1)c1ncccn1

$$$$

  CDD

  0  0  0  0  0  0            999 V2000
M  END
> <Molecule Name>
CVD-0007323

> <SMILES>
CC(=O)N1CCOC(CNc2cc(ncn2)N2CCCCC2)C1

$$$$

  CDD

  0  0  0  0  0  0            999 V2000
M  END
> <Molecule Name>
CVD-0007322

> <SMILES>
O=C(CSc1ncccn1)N1CCCC(C1)C(=O)N1CCOCC1

$$$$

  CDD

  0  0  0  0  0  0            999 V2000
M  END
> <Molecule Name>
CVD-0007321

> <SMILES>
CC1CN(CC(C)O1)C(=O)CN1CCCC2(CCc3cnc(nc23)-c2ccccc2)C1

$$$$

  CDD

  0  0  0  0  0  0            999 V2000
M  END
> <Molecule Name>
CVD-0007320

> <SMILES>
CCc1nccc(CN2CCC(CC2)C(=O)N2CCOCC2)n1

$$$$

  CDD

  0  0  0  0  0  0            999 V2000
M  END
> <Molecule Name>
CVD-0007319

> <SMILES>
CCCC1COCCN1C(=O)CN1CCN(CC1)c1ncccn1

$$$$

  CDD

  0  0  0  0  0  0            999 V2000
M  END
> <Molecule Name>
CVD-0007318

> <SMILES>
CCc1cc(NCC2CN(CCO2)C(C)=O)nc(n1)N1CCCCC1

$$$$

  CDD

  0  0  0  0  0  0            999 V2000
M  END
> <Molecule Name>
CVD-0007317

> <SMILES>
Cc1nccc(n1)N1CCCn2nc(CCC(=O)N3CCOCC3)cc2C1

$$$$

  CDD

  0  0  0  0  0  0            999 V2000
M  END
> <Molecule Name>
CVD-0007316

> <SMILES>
CSc1ncc(CN2CCC(CCC(=O)N3CCOCC3)CC2)cn1

$$$$

  CDD

  0  0  0  0  0  0            999 V2000
M  END
> <Molecule Name>
CVD-0007315

> <SMILES>
CC(=O)c1cnc(nc1C)N1CCC(CC1)C(=O)N1CCOCC1

$$$$

  CDD

  0  0  0  0  0  0            999 V2000
M  END
> <Molecule Name>
CVD-0007314

> <SMILES>
O=C(C1CCN(CC1)c1cc(ncn1)C1CCOC1)N1CCOCC1

$$$$

  CDD

  0  0  0  0  0  0            999 V2000
M  END
> <Molecule Name>
CVD-0007313

> <SMILES>
CCC1COCCN1C(=O)CCc1c(C)nc(O)nc1C

$$$$

  CDD

  0  0  0  0  0  0            999 V2000
M  END
> <Molecule Name>
CVD-0007312

> <SMILES>
CN(C)c1ncc(CN2CCC(CCC(=O)N3CCOCC3)CC2)cn1

$$$$

  CDD

  0  0  0  0  0  0            999 V2000
M  END
> <Molecule Name>
CVD-0007311

> <SMILES>
CCC1COCCN1C(=O)c1coc(CN2CCN(CC2)c2ncccn2)n1

$$$$

  CDD

  0  0  0  0  0  0            999 V2000
M  END
> <Molecule Name>
CVD-0007310

> <SMILES>
CC(N1CCCC1=O)C(=O)N1CCOC2(CCN(CC2)c2ccnc(C)n2)C1

$$$$

  CDD

  0  0  0  0  0  0            999 V2000
M  END
> <Molecule Name>
CVD-0007309

> <SMILES>
CC(=O)N1CCOC(CNc2ncc(C#N)c(N)n2)C1

$$$$

  CDD

  0  0  0  0  0  0            999 V2000
M  END
> <Molecule Name>
CVD-0007308

> <SMILES>
Cc1nc(cc(n1)N1CCCC1)C1CCCN(CC(=O)N2CCOCC2)C1

$$$$

  CDD

  0  0  0  0  0  0            999 V2000
M  END
> <Molecule Name>
CVD-0007307

> <SMILES>
CC(=O)N1CCOC(CNc2cc(nc3ccnn23)-c2ccccc2)C1

$$$$

  CDD

  0  0  0  0  0  0            999 V2000
M  END
> <Molecule Name>
CVD-0007306

> <SMILES>
O=C(C1CCCN1Cc1cnc(nc1)C1CCCCC1)N1CCOCC1

$$$$

  CDD

  0  0  0  0  0  0            999 V2000
M  END
> <Molecule Name>
CVD-0007305

> <SMILES>
O=C(C1CNCC(C1)C(=O)N1CCN(CC1)c1ncccn1)N1CCOCC1

$$$$

  CDD

  0  0  0  0  0  0            999 V2000
M  END
> <Molecule Name>
CVD-0007304

> <SMILES>
O=C(N1CCOCC1)c1ccc(o1)-c1cncnc1

$$$$

  CDD

  0  0  0  0  0  0            999 V2000
M  END
> <Molecule Name>
CVD-0007303

> <SMILES>
Cc1nc(O)nc(C)c1CCC(=O)N1CCOC(C1)c1cccnc1

$$$$

  CDD

  0  0  0  0  0  0            999 V2000
M  END
> <Molecule Name>
CVD-0007302

> <SMILES>
CCCCSc1nc(N)cc(n1)N1CCC(CC1)C(=O)N1CCOCC1

$$$$

  CDD

  0  0  0  0  0  0            999 V2000
M  END
> <Molecule Name>
CVD-0007301

> <SMILES>
CSc1ncc(CN2CCCC(CCC(=O)N3CCOCC3)C2)cn1

$$$$

  CDD

  0  0  0  0  0  0            999 V2000
M  END
> <Molecule Name>
CVD-0007300

> <SMILES>
O=C(C1CCCN(C1)c1nccc(n1)-c1cccnc1)N1CCOCC1

$$$$

  CDD

  0  0  0  0  0  0            999 V2000
M  END
> <Molecule Name>
CVD-0007299

> <SMILES>
OC(=O)CC1COCCN1C(=O)c1ccc(CSc2ncccn2)o1

$$$$

  CDD

  0  0  0  0  0  0            999 V2000
M  END
> <Molecule Name>
CVD-0007298

> <SMILES>
COc1cc(nc(OC)n1)C(=O)NCC1CN(CCO1)C(C)=O

$$$$

  CDD

  0  0  0  0  0  0            999 V2000
M  END
> <Molecule Name>
CVD-0007297

> <SMILES>
O=C(CCc1ccc2OCOc2c1)N1CCOC2(CCN(C2)c2ncccn2)C1

$$$$

  CDD

  0  0  0  0  0  0            999 V2000
M  END
> <Molecule Name>
CVD-0007296

> <SMILES>
CC(=O)N1CCOC(CNc2nc(C)nc(O)c2Cl)C1

$$$$

  CDD

  0  0  0  0  0  0            999 V2000
M  END
> <Molecule Name>
CVD-0007295

> <SMILES>
Cc1ncc2CCC3(CCCN(CC(=O)N4CCOCC4)C3)c2n1

$$$$

  CDD

  0  0  0  0  0  0            999 V2000
M  END
> <Molecule Name>
CVD-0007294

> <SMILES>
Nc1cc(ncn1)N1CCC(CC1)N1CCCC(C1)C(=O)N1CCOCC1

$$$$

  CDD

  0  0  0  0  0  0            999 V2000
M  END
> <Molecule Name>
CVD-0007293

> <SMILES>
Nc1ncc2CCC3(CCCN(CC(=O)N4CCOCC4)C3)c2n1

$$$$

  CDD

  0  0  0  0  0  0            999 V2000
M  END
> <Molecule Name>
CVD-0007292

> <SMILES>
CC1CN(CC(C)O1)C(=O)CN1CCC(Nc2ncccn2)C(O)C1

$$$$

  CDD

  0  0  0  0  0  0            999 V2000
M  END
> <Molecule Name>
CVD-0007291

> <SMILES>
CN(C)c1ncc2CCC3(CCCN(CC(=O)N4CCOCC4)C3)c2n1

$$$$

  CDD

  0  0  0  0  0  0            999 V2000
M  END
> <Molecule Name>
CVD-0007290

> <SMILES>
O=C(CN1CCN(CC1)c1ncccn1)N1CCOC(C1)c1ccccc1

$$$$

  CDD

  0  0  0  0  0  0            999 V2000
M  END
> <Molecule Name>
CVD-0007289

> <SMILES>
O=C(C1CNCC(C1)C(=O)N1CCC(CC1)c1ccncn1)N1CCOCC1

$$$$

  CDD

  0  0  0  0  0  0            999 V2000
M  END
> <Molecule Name>
CVD-0007288

> <SMILES>
Cc1nc2c(ncnc2o1)N1CCC(CC1)C(=O)N1CCOCC1

$$$$

  CDD

  0  0  0  0  0  0            999 V2000
M  END
> <Molecule Name>
CVD-0007287

> <SMILES>
CNc1ccnc(n1)N1CCC(CC1)N1CCCC(C1)C(=O)N1CCOCC1

$$$$

  CDD

  0  0  0  0  0  0            999 V2000
M  END
> <Molecule Name>
CVD-0007286

> <SMILES>
CNc1nc(C)cc(n1)N1CCC(CC1)N1CCCC(C1)C(=O)N1CCOCC1

$$$$

  CDD

  0  0  0  0  0  0            999 V2000
M  END
> <Molecule Name>
CVD-0007285

> <SMILES>
Cc1nc(CC(=O)N2CCOC3(CCN(CC3)c3ncccn3)C2)cs1

$$$$

  CDD

  0  0  0  0  0  0            999 V2000
M  END
> <Molecule Name>
CVD-0007284

> <SMILES>
COc1cccc(CC2CN(CCO2)C(=O)Cc2c(C)nc(N)nc2C)c1

$$$$

  CDD

  0  0  0  0  0  0            999 V2000
M  END
> <Molecule Name>
CVD-0007283

> <SMILES>
CCCCSc1nc(N)cc(n1)N1CCCC(C1)C(=O)N1CCOCC1

$$$$

  CDD

  0  0  0  0  0  0            999 V2000
M  END
> <Molecule Name>
CVD-0007282

> <SMILES>
O=C(NCc1cn2cccnc2n1)C1CNCC(C1)C(=O)N1CCOCC1

$$$$

  CDD

  0  0  0  0  0  0            999 V2000
M  END
> <Molecule Name>
CVD-0007281

> <SMILES>
CCc1nccc(CN2CCC3(CC2)CN(CCO3)C(=O)NC(C)(C)C)n1

$$$$

  CDD

  0  0  0  0  0  0            999 V2000
M  END
> <Molecule Name>
CVD-0007280

> <SMILES>
O=C(CN1CCCC2(CCc3cnc(nc23)-c2ccccc2)C1)N1CCOCC1

$$$$

  CDD

  0  0  0  0  0  0            999 V2000
M  END
> <Molecule Name>
CVD-0007279

> <SMILES>
Nc1ccnc(n1)N1CCC2(CC1)CN(CCO2)C(=O)Cc1cccs1

$$$$

  CDD

  0  0  0  0  0  0            999 V2000
M  END
> <Molecule Name>
CVD-0007278

> <SMILES>
Cc1nc(N)nc(C)c1CC(=O)N1CCOCC1CC(=O)Nc1ccccc1

$$$$

  CDD

  0  0  0  0  0  0            999 V2000
M  END
> <Molecule Name>
CVD-0007277

> <SMILES>
O=C(CCc1cn[nH]c1)N1CCOC2(CCN(Cc3cncnc3)CC2)C1

$$$$

  CDD

  0  0  0  0  0  0            999 V2000
M  END
> <Molecule Name>
CVD-0007276

> <SMILES>
Oc1ccccc1CC(=O)N1CCOC2(CCN(Cc3cncnc3)CC2)C1

$$$$

  CDD

  0  0  0  0  0  0            999 V2000
M  END
> <Molecule Name>
CVD-0007275

> <SMILES>
ClCC(=O)N1CCC(CC1)C(=O)N1CCN(CC1)S(=O)(=O)c1ccc(cc1)C#N

$$$$

  CDD

  0  0  0  0  0  0            999 V2000
M  END
> <Molecule Name>
CVD-0007274

> <SMILES>
ClCC(=O)N1CCC(CC1)C(=O)N1CCCN(CC1)S(=O)(=O)c1ccc(Br)s1

$$$$

  CDD

  0  0  0  0  0  0            999 V2000
M  END
> <Molecule Name>
CVD-0007273

> <SMILES>
ClCC(=O)N1CCC(CC1)C(=O)N1CCCN(CC1)S(=O)(=O)c1cccs1

$$$$

  CDD

  0  0  0  0  0  0            999 V2000
M  END
> <Molecule Name>
CVD-0007272

> <SMILES>
ClCC(=O)N1CCC(CC1)C(=O)N1CCN(CC1)S(=O)(=O)c1ccc2OCCCOc2c1

$$$$

  CDD

  0  0  0  0  0  0            999 V2000
M  END
> <Molecule Name>
CVD-0007271

> <SMILES>
[O-][N+](=O)c1ccccc1S(=O)(=O)N1CCN(CC1)C(=O)C1CCN(CC1)C(=O)CCl

$$$$

  CDD

  0  0  0  0  0  0            999 V2000
M  END
> <Molecule Name>
CVD-0007270

> <SMILES>
NS(=O)(=O)c1ccc(cc1)S(=O)(=O)N1CCN(CC1)C(=O)C1CCN(CC1)C(=O)CCl

$$$$

  CDD

  0  0  0  0  0  0            999 V2000
M  END
> <Molecule Name>
CVD-0007269

> <SMILES>
ClCC(=O)N1CCC(CC1)C(=O)N1CCN(CC1)S(=O)(=O)c1ccccc1C#N

$$$$

  CDD

  0  0  0  0  0  0            999 V2000
M  END
> <Molecule Name>
CVD-0007268

> <SMILES>
ClCC(=O)N1CCC(CC1)C(=O)N1CCN(CC1)S(=O)(=O)c1ccc(Cl)s1

$$$$

  CDD

  0  0  0  0  0  0            999 V2000
M  END
> <Molecule Name>
CVD-0007267

> <SMILES>
ClCC(=O)N1CCC(CC1)C(=O)N1CCCN(CC1)S(=O)(=O)c1ccc2OCCOc2c1

$$$$

  CDD

  0  0  0  0  0  0            999 V2000
M  END
> <Molecule Name>
CVD-0007266

> <SMILES>
ClCC(=O)N1CCC(CC1)C(=O)N1CCCN(CC1)S(=O)(=O)c1cccc2cnccc12

$$$$

  CDD

  0  0  0  0  0  0            999 V2000
M  END
> <Molecule Name>
CVD-0007265

> <SMILES>
NC[C@@H]1NC(=O)CC=C1c1cc(ccc1OC(=O)C1(CNc2nnc[nH]2)CCCCC1)C(F)F

$$$$

  CDD

  0  0  0  0  0  0            999 V2000
M  END
> <Molecule Name>
CVD-0007264

> <SMILES>
CNC(=O)CN1CCN(C)CC1C(=O)Nc1cnccc1C

$$$$

  CDD

  0  0  0  0  0  0            999 V2000
M  END
> <Molecule Name>
CVD-0007263

> <SMILES>
CNC(=O)COC1(CC(=O)Nc2cnccc2C)CCN(C)CC1

$$$$

  CDD

  0  0  0  0  0  0            999 V2000
M  END
> <Molecule Name>
CVD-0007262

> <SMILES>
Cc1ccncc1NC(=O)Nc1ccccc1CCNS(C)(=O)=O

$$$$

  CDD

  0  0  0  0  0  0            999 V2000
M  END
> <Molecule Name>
CVD-0007261

> <SMILES>
NS(=O)(=O)c1cccc(CCNC(=O)Nc2cccnc2)c1

$$$$

  CDD

  0  0  0  0  0  0            999 V2000
M  END
> <Molecule Name>
CVD-0007260

> <SMILES>
CN1CCN(Cc2cccc(CNC(=O)Nc3cccnc3)c2)CC1

$$$$

  CDD

  0  0  0  0  0  0            999 V2000
M  END
> <Molecule Name>
CVD-0007259

> <SMILES>
Clc1cccc(c1)N1CCN(CC1)C(=O)CNC(=O)Nc1cccnc1

$$$$

  CDD

  0  0  0  0  0  0            999 V2000
M  END
> <Molecule Name>
CVD-0007258

> <SMILES>
CN1CCN(CC1)C(=O)Cc1cccc(NC(=O)Nc2cccnc2)c1

$$$$

  CDD

  0  0  0  0  0  0            999 V2000
M  END
> <Molecule Name>
CVD-0007257

> <SMILES>
Clc1ccc(s1)S(=O)(=O)NCCNC(=O)Nc1cccnc1

$$$$

  CDD

  0  0  0  0  0  0            999 V2000
M  END
> <Molecule Name>
CVD-0007256

> <SMILES>
CC(=O)Nc1ccc(cc1)S(=O)(=O)N1CCC(CC1)NC(=O)Nc1cccnc1

$$$$

  CDD

  0  0  0  0  0  0            999 V2000
M  END
> <Molecule Name>
CVD-0007255

> <SMILES>
Ic1ccc(cc1)S(=O)(=O)N1CCC(CC1)NC(=O)Nc1cccnc1

$$$$

  CDD

  0  0  0  0  0  0            999 V2000
M  END
> <Molecule Name>
CVD-0007254

> <SMILES>
O=C(NCc1ccccc1S(=O)(=O)N1CCCC1)Nc1cccnc1

$$$$

  CDD

  0  0  0  0  0  0            999 V2000
M  END
> <Molecule Name>
CVD-0007253

> <SMILES>
O=C(NCc1ccc(cc1)S(=O)(=O)N1CCCC1)Nc1cccnc1

$$$$

  CDD

  0  0  0  0  0  0            999 V2000
M  END
> <Molecule Name>
CVD-0007252

> <SMILES>
O=C(NCc1ccccc1S(=O)(=O)N1CCOCC1)Nc1cccnc1

$$$$

  CDD

  0  0  0  0  0  0            999 V2000
M  END
> <Molecule Name>
CVD-0007251

> <SMILES>
Oc1ncc(CC(=O)Nc2cccc(Cl)c2)c2ccccc12

$$$$

  CDD

  0  0  0  0  0  0            999 V2000
M  END
> <Molecule Name>
CVD-0007250

> <SMILES>
Cc1cc(O)ncc1CC(=O)Nc1cccc(Cl)c1

$$$$

  CDD

  0  0  0  0  0  0            999 V2000
M  END
> <Molecule Name>
CVD-0007249

> <SMILES>
Cc1[nH]ncc1CC(=O)Nc1cccc(Cl)c1

$$$$

  CDD

  0  0  0  0  0  0            999 V2000
M  END
> <Molecule Name>
CVD-0007248

> <SMILES>
Clc1cccc(NC(=O)Cc2cn[nH]c2)c1

$$$$

  CDD

  0  0  0  0  0  0            999 V2000
M  END
> <Molecule Name>
CVD-0007247

> <SMILES>
Clc1cccc(CC(=O)Nc2cn[nH]c2)c1

$$$$

  CDD

  0  0  0  0  0  0            999 V2000
M  END
> <Molecule Name>
CVD-0007246

> <SMILES>
CN1CCN(C(C1)N1CCC(O)CC1)C(=O)Cc1c[nH]c2ncccc12

$$$$

  CDD

  0  0  0  0  0  0            999 V2000
M  END
> <Molecule Name>
CVD-0007245

> <SMILES>
Cc1nnc(Cc2cc(ccc2CNC(=O)N2CCOCC2)C#N)s1

$$$$

  CDD

  0  0  0  0  0  0            999 V2000
M  END
> <Molecule Name>
CVD-0007244

> <SMILES>
NS(=O)(=O)c1ccc2ccc(NC(=O)Nc3cccnc3)cc2c1

$$$$

  CDD

  0  0  0  0  0  0            999 V2000
M  END
> <Molecule Name>
CVD-0007243

> <SMILES>
Cc1c(NC(=O)Nc2cccnc2)ccc2ccc(cc12)S(N)(=O)=O

$$$$

  CDD

  0  0  0  0  0  0            999 V2000
M  END
> <Molecule Name>
CVD-0007242

> <SMILES>
CC1CN2Cc3ccc(c(N1C(=O)Cc1c[nH]c4ncccc14)c23)S(N)(=O)=O

$$$$

  CDD

  0  0  0  0  0  0            999 V2000
M  END
> <Molecule Name>
CVD-0007241

> <SMILES>
O=C(Cc1c[nH]c2ncccc12)N1CCN2CCC2C1

$$$$

  CDD

  0  0  0  0  0  0            999 V2000
M  END
> <Molecule Name>
CVD-0007240

> <SMILES>
OC1CCN(Cc2cc(ccc2CNC(=O)N2CCOCC2)C#N)CC1

$$$$

  CDD

  0  0  0  0  0  0            999 V2000
M  END
> <Molecule Name>
CVD-0007239

> <SMILES>
O=C(Cc1cc(ccc1CNC(=O)N1CCOCC1)C#N)Nc1cccnc1

$$$$

  CDD

  0  0  0  0  0  0            999 V2000
M  END
> <Molecule Name>
CVD-0007238

> <SMILES>
NS(=O)(=O)c1ccc2c(ccc(CNC(=O)N3CCOCC3)c2c1)C#N

$$$$

  CDD

  0  0  0  0  0  0            999 V2000
M  END
> <Molecule Name>
CVD-0007237

> <SMILES>
Fc1cccc(CNC[C@H]2CN(CCO2)C(=O)Cn2cccn2)c1

$$$$

  CDD

  0  0  0  0  0  0            999 V2000
M  END
> <Molecule Name>
CVD-0007236

> <SMILES>
[O-][N+](=O)c1ccc2ncc(NC(=O)Nc3ccccc3)nc2c1

$$$$

  CDD

  0  0  0  0  0  0            999 V2000
M  END
> <Molecule Name>
CVD-0007235

> <SMILES>
CCCc1cc2OCOc2cc1S(=O)(=O)N1CCN(CC1)c1ccccc1

$$$$

  CDD

  0  0  0  0  0  0            999 V2000
M  END
> <Molecule Name>
CVD-0007234

> <SMILES>
Cc1csc(C(=O)N\N=C\c2cccnc2)c1N

$$$$

  CDD

  0  0  0  0  0  0            999 V2000
M  END
> <Molecule Name>
CVD-0007233

> <SMILES>
CN1C(=O)\C(=N/NC(=O)c2ccc3OCOc3c2)c2ccccc12

$$$$

  CDD

  0  0  0  0  0  0            999 V2000
M  END
> <Molecule Name>
CVD-0007232

> <SMILES>
CN(\N=C\c1c(C)[nH]c2ccccc12)C(=O)c1ccc2OCOc2c1

$$$$

  CDD

  0  0  0  0  0  0            999 V2000
M  END
> <Molecule Name>
CVD-0007231

> <SMILES>
O=C(CNc1c(nc2ccccn12)-c1ccccc1)N\N=C\c1cccc2ccccc12

$$$$

  CDD

  0  0  0  0  0  0            999 V2000
M  END
> <Molecule Name>
CVD-0007230

> <SMILES>
O=C(N\N=C\c1c[nH]cn1)C1CCCCC1

$$$$

  CDD

  0  0  0  0  0  0            999 V2000
M  END
> <Molecule Name>
CVD-0007229

> <SMILES>
CS(=O)(=O)c1ccc(Nc2c(nc3ccccn23)-c2ccccn2)cc1

$$$$

  CDD

  0  0  0  0  0  0            999 V2000
M  END
> <Molecule Name>
CVD-0007228

> <SMILES>
Cc1nn(c(Nc2cccc(c2)C(F)(F)F)c1NS(C)(=O)=O)-c1ccccc1

$$$$

  CDD

  0  0  0  0  0  0            999 V2000
M  END
> <Molecule Name>
CVD-0007227

> <SMILES>
[O-][S+](Cc1cn[nH]c1)Cc1cccc(Cl)c1

$$$$

  CDD

  0  0  0  0  0  0            999 V2000
M  END
> <Molecule Name>
CVD-0007226

> <SMILES>
[O-][S+](Cc1cccnc1)Cc1cccc(Cl)c1

$$$$

  CDD

  0  0  0  0  0  0            999 V2000
M  END
> <Molecule Name>
CVD-0007225

> <SMILES>
CN(C)c1ccc(cc1)N(Cc1ccsc1)C(=O)Cn1nnc2ccccc12

$$$$

  CDD

  0  0  0  0  0  0            999 V2000
M  END
> <Molecule Name>
CVD-0007224

> <SMILES>
Cc1onc2C([S+]([O-])C(c12)c1cccc(Cl)c1)c1cnc(O)cc1C

$$$$

  CDD

  0  0  0  0  0  0            999 V2000
M  END
> <Molecule Name>
CVD-0007223

> <SMILES>
Cc1[nH]ncc1C1[S+]([O-])C(c2c(C)onc12)c1cccc(Cl)c1

$$$$

  CDD

  0  0  0  0  0  0            999 V2000
M  END
> <Molecule Name>
CVD-0007222

> <SMILES>
Cc1onc2C([S+]([O-])C(c12)c1cccc(Cl)c1)c1cncc2ccccc12

$$$$

  CDD

  0  0  0  0  0  0            999 V2000
M  END
> <Molecule Name>
CVD-0007221

> <SMILES>
Cc1onc2C([S+]([O-])C(c12)c1cccc(Cl)c1)c1cnccc1C

$$$$

  CDD

  0  0  0  0  0  0            999 V2000
M  END
> <Molecule Name>
CVD-0007220

> <SMILES>
Cc1ccncc1C1[S+]([O-])C(c2cccnc12)c1cccc(Cl)c1

$$$$

  CDD

  0  0  0  0  0  0            999 V2000
M  END
> <Molecule Name>
CVD-0007219

> <SMILES>
CCNc1ncc(cc1C(=O)Nc1cnccc1C)C#N

$$$$

  CDD

  0  0  0  0  0  0            999 V2000
M  END
> <Molecule Name>
CVD-0007218

> <SMILES>
Cc1nnc(CN2C3CCc4ccc(cc4[N+]23C)S(N)(=O)=O)s1

$$$$

  CDD

  0  0  0  0  0  0            999 V2000
M  END
> <Molecule Name>
CVD-0007217

> <SMILES>
COC1=C(F)CN(Cc2nnc(C)s2)c2cc(ccc12)S(N)(=O)=O

$$$$

  CDD

  0  0  0  0  0  0            999 V2000
M  END
> <Molecule Name>
CVD-0007216

> <SMILES>
CN1C2CN(CC1C2CC(=O)Nc1cccnc1)C(=O)COc1ccc(C)cc1

$$$$

  CDD

  0  0  0  0  0  0            999 V2000
M  END
> <Molecule Name>
CVD-0007215

> <SMILES>
CCNC1CCC(CC1CC(=O)Nc1cccnc1)C#N

$$$$

  CDD

  0  0  0  0  0  0            999 V2000
M  END
> <Molecule Name>
CVD-0007214

> <SMILES>
Fc1ccccc1C(=O)NCCC1CCN2CC2(C1)NC(=O)Nc1ccccc1

$$$$

  CDD

  0  0  0  0  0  0            999 V2000
M  END
> <Molecule Name>
CVD-0007213

> <SMILES>
Cc1cnc2CN(N(C(=O)CC3CCCCC3)c2c1)C(=O)NC1CC1

$$$$

  CDD

  0  0  0  0  0  0            999 V2000
M  END
> <Molecule Name>
CVD-0007212

> <SMILES>
Cc1nnc(s1)C1CC[C@@H](C2CC=C(F)CN12)C(N)=O

$$$$

  CDD

  0  0  0  0  0  0            999 V2000
M  END
> <Molecule Name>
CVD-0007211

> <SMILES>
CC(=O)CN(Cc1noc(C)c1C)C(=O)NC1CC1

$$$$

  CDD

  0  0  0  0  0  0            999 V2000
M  END
> <Molecule Name>
CVD-0007210

> <SMILES>
O=C(Nc1cccnc1)Nc1cccc2Cc12

$$$$

  CDD

  0  0  0  0  0  0            999 V2000
M  END
> <Molecule Name>
CVD-0007209

> <SMILES>
CCCNCC1CCCCC1(CNc1nnc[nH]1)C(=O)Oc1ccc(cc1C1=CCC(=O)N[C@H]1C)C(F)(F)F

$$$$

  CDD

  0  0  0  0  0  0            999 V2000
M  END
> <Molecule Name>
CVD-0007208

> <SMILES>
[O-][N+](=O)c1ccc(cc1C=O)-c1ccc(CN2CCN(CC2)C(=O)CCl)s1

$$$$

  CDD

  0  0  0  0  0  0            999 V2000
M  END
> <Molecule Name>
CVD-0007207

> <SMILES>
Nc1cc(cs1)-c1cc(ccc1F)S(=O)(=O)N1CCN(CC1)C(=O)CCl

$$$$

  CDD

  0  0  0  0  0  0            999 V2000
M  END
> <Molecule Name>
CVD-0007206

> <SMILES>
ClCC(=O)N1CCN(CC1)S(=O)(=O)c1ccc(cc1)C1CC1

$$$$

  CDD

  0  0  0  0  0  0            999 V2000
M  END
> <Molecule Name>
CVD-0007205

> <SMILES>
CC(C)(C)[Si](C)(C)OCCN1CCN(CC1)S(=O)(=O)c1ccc(cc1)-c1cccc(CN2CCN(CC2)C(=O)CCl)c1

$$$$

  CDD

  0  0  0  0  0  0            999 V2000
M  END
> <Molecule Name>
CVD-0007204

> <SMILES>
CC(C#N)S(=O)(=O)Nc1ccnc(c1)-c1ccc(s1)S(=O)(=O)N1CCN(CC1)C(=O)CCl

$$$$

  CDD

  0  0  0  0  0  0            999 V2000
M  END
> <Molecule Name>
CVD-0007203

> <SMILES>
ClCC(=O)N(C1CS(=O)(=O)C=C1)c1ccc(cc1)-c1ccc2oc3ccc4ccccc4c3c2c1

$$$$

  CDD

  0  0  0  0  0  0            999 V2000
M  END
> <Molecule Name>
CVD-0007202

> <SMILES>
ClCC(=O)N1CCN(CC1)S(=O)(=O)c1ccccc1-c1cccc(Br)c1C#N

$$$$

  CDD

  0  0  0  0  0  0            999 V2000
M  END
> <Molecule Name>
CVD-0007201

> <SMILES>
ClCC(=O)N(C1CS(=O)(=O)C=C1)c1ccc(cc1)-c1cccc2c1oc1ccc3ccccc3c21

$$$$

  CDD

  0  0  0  0  0  0            999 V2000
M  END
> <Molecule Name>
CVD-0007200

> <SMILES>
ClCC(=O)N1CCN(Cc2ccc(s2)-c2ccc3ccccc3c2CBr)CC1

$$$$

  CDD

  0  0  0  0  0  0            999 V2000
M  END
> <Molecule Name>
CVD-0007199

> <SMILES>
ClCC(=O)N1CCN(Cc2ccc(s2)-c2cccn2S(=O)(=O)c2ccccc2)CC1

$$$$

  CDD

  0  0  0  0  0  0            999 V2000
M  END
> <Molecule Name>
CVD-0007198

> <SMILES>
CSCC[C@H](NC(=O)Nc1cccnc1)C(=O)N(C)C

$$$$

  CDD

  0  0  0  0  0  0            999 V2000
M  END
> <Molecule Name>
CVD-0007197

> <SMILES>
CC1(C)CC(CC(C)(C)O1)NC(=O)Nc1cccnc1

$$$$

  CDD

  0  0  0  0  0  0            999 V2000
M  END
> <Molecule Name>
CVD-0007196

> <SMILES>
COc1c(NC(=O)Nc2cccnc2)cc(cc1C(C)(C)C)C(C)(C)C

$$$$

  CDD

  0  0  0  0  0  0            999 V2000
M  END
> <Molecule Name>
CVD-0007195

> <SMILES>
COc1cc(NC(=O)Nc2cccnc2)c(cc1OC)C(=O)N1C(C)CCCC1C

$$$$

  CDD

  0  0  0  0  0  0            999 V2000
M  END
> <Molecule Name>
CVD-0007194

> <SMILES>
CCCc1ccc(cc1)C(NC(=O)Nc1cccnc1)C(C)C

$$$$

  CDD

  0  0  0  0  0  0            999 V2000
M  END
> <Molecule Name>
CVD-0007193

> <SMILES>
CC(C)(C)OC(=O)Cc1ccccc1NC(=O)Nc1cccnc1

$$$$

  CDD

  0  0  0  0  0  0            999 V2000
M  END
> <Molecule Name>
CVD-0007192

> <SMILES>
CC(C)C(CNC(=O)Nc1cccnc1)Nc1ccccc1

$$$$

  CDD

  0  0  0  0  0  0            999 V2000
M  END
> <Molecule Name>
CVD-0007191

> <SMILES>
CC(C)(C)c1cc(N)cc(NC(=O)Nc2cccnc2)c1

$$$$

  CDD

  0  0  0  0  0  0            999 V2000
M  END
> <Molecule Name>
CVD-0007190

> <SMILES>
CC(C)(C)C(CN1CCc2ccccc2C1)NC(=O)Nc1cccnc1

$$$$

  CDD

  0  0  0  0  0  0            999 V2000
M  END
> <Molecule Name>
CVD-0007189

> <SMILES>
CC(C)(C)CC(=O)N(CC(N)=O)Cc1ccccc1NC(=O)Nc1cccnc1

$$$$

  CDD

  0  0  0  0  0  0            999 V2000
M  END
> <Molecule Name>
CVD-0007188

> <SMILES>
ClCC(=O)N1CCN(CCCc2ccccc2)CC1

$$$$

  CDD

  0  0  0  0  0  0            999 V2000
M  END
> <Molecule Name>
CVD-0007187

> <SMILES>
CC(=O)Nc1ccc(cc1)C(=O)CSc1nc(C)cc(O)n1

$$$$

  CDD

  0  0  0  0  0  0            999 V2000
M  END
> <Molecule Name>
CVD-0007186

> <SMILES>
Cc1ccc(NC(=O)NCCNc2cc(ncn2)N2CCOCC2)cc1C

$$$$

  CDD

  0  0  0  0  0  0            999 V2000
M  END
> <Molecule Name>
CVD-0007185

> <SMILES>
CC(=O)Nc1nc2nc(C)cc(O)n2n1

$$$$

  CDD

  0  0  0  0  0  0            999 V2000
M  END
> <Molecule Name>
CVD-0007184

> <SMILES>
COc1cccc(NC(=O)CSc2nc(N)cc(N)n2)c1

$$$$

  CDD

  0  0  0  0  0  0            999 V2000
M  END
> <Molecule Name>
CVD-0007183

> <SMILES>
Cc1ccc(NC(=O)NCCNc2cc(ncn2)N2CCOCC2)cc1

$$$$

  CDD

  0  0  0  0  0  0            999 V2000
M  END
> <Molecule Name>
CVD-0007182

> <SMILES>
CC(C)C(=O)Nc1nc2nc(C)cc(O)n2n1

$$$$

  CDD

  0  0  0  0  0  0            999 V2000
M  END
> <Molecule Name>
CVD-0007181

> <SMILES>
COc1ccc(Cl)cc1NC(=O)CSc1nc(N)cc(O)n1

$$$$

  CDD

  0  0  0  0  0  0            999 V2000
M  END
> <Molecule Name>
CVD-0007180

> <SMILES>
Oc1nc(SCC(=O)NC2CCCCC2)nc2[nH]cnc12

$$$$

  CDD

  0  0  0  0  0  0            999 V2000
M  END
> <Molecule Name>
CVD-0007179

> <SMILES>
OCCCNc1ncnc2Oc3cc(O)ccc3C(c3ccccc3Cl)c12

$$$$

  CDD

  0  0  0  0  0  0            999 V2000
M  END
> <Molecule Name>
CVD-0007178

> <SMILES>
COc1ccc(cc1OC)C(=O)CSc1nc(O)c2ccccc2n1

$$$$

  CDD

  0  0  0  0  0  0            999 V2000
M  END
> <Molecule Name>
CVD-0007177

> <SMILES>
OCCCNc1nc(nc2ccccc12)N1CCN(CCO)CC1

$$$$

  CDD

  0  0  0  0  0  0            999 V2000
M  END
> <Molecule Name>
CVD-0007176

> <SMILES>
OCCN1CCN(CC1)c1nc(NCc2ccco2)c2ccccc2n1

$$$$

  CDD

  0  0  0  0  0  0            999 V2000
M  END
> <Molecule Name>
CVD-0007175

> <SMILES>
Cc1ccc2ncnc(NC(CO)C(O)=O)c2c1

$$$$

  CDD

  0  0  0  0  0  0            999 V2000
M  END
> <Molecule Name>
CVD-0007174

> <SMILES>
Cc1nc2ncnn2c2ccn(CC(O)=O)c(=O)c12

$$$$

  CDD

  0  0  0  0  0  0            999 V2000
M  END
> <Molecule Name>
CVD-0007173

> <SMILES>
O=c1cc(CSc2ncnc3[nH]cnc23)c2ccccc2[nH]1

$$$$

  CDD

  0  0  0  0  0  0            999 V2000
M  END
> <Molecule Name>
CVD-0007172

> <SMILES>
Cc1c(F)cccc1NC(=O)NCCNc1cc(ncn1)N1CCOCC1

$$$$

  CDD

  0  0  0  0  0  0            999 V2000
M  END
> <Molecule Name>
CVD-0007171

> <SMILES>
Cc1cc(O)nc(SCC(=O)NC(c2ccccc2)c2ccccc2)n1

$$$$

  CDD

  0  0  0  0  0  0            999 V2000
M  END
> <Molecule Name>
CVD-0007170

> <SMILES>
CSc1cccc(NC(=O)NCCNc2cc(ncn2)N2CCOCC2)c1

$$$$

  CDD

  0  0  0  0  0  0            999 V2000
M  END
> <Molecule Name>
CVD-0007169

> <SMILES>
COc1cccc(c1)-c1nc2CC(C)(C)OCc2c(SCC(N)=O)n1

$$$$

  CDD

  0  0  0  0  0  0            999 V2000
M  END
> <Molecule Name>
CVD-0007168

> <SMILES>
Clc1ccc(NC(=O)NCCNc2cc(ncn2)N2CCOCC2)cc1

$$$$

  CDD

  0  0  0  0  0  0            999 V2000
M  END
> <Molecule Name>
CVD-0007167

> <SMILES>
CC(C)C(=O)Nc1ccc(cc1)S(=O)(=O)Nc1nccc(C)n1

$$$$

  CDD

  0  0  0  0  0  0            999 V2000
M  END
> <Molecule Name>
CVD-0007166

> <SMILES>
CCNc1cc(nc(C)n1)N1CCN(CC1)S(=O)(=O)c1cccnc1

$$$$

  CDD

  0  0  0  0  0  0            999 V2000
M  END
> <Molecule Name>
CVD-0007165

> <SMILES>
Cc1nc2ncc3c(ccn(CC(O)=O)c3=O)n2n1

$$$$

  CDD

  0  0  0  0  0  0            999 V2000
M  END
> <Molecule Name>
CVD-0007164

> <SMILES>
CCOC(=O)C(Sc1cc(C)nc(N)n1)C(C)=O

$$$$

  CDD

  0  0  0  0  0  0            999 V2000
M  END
> <Molecule Name>
CVD-0007163

> <SMILES>
CCc1c(C)nc(SCC(=O)Nc2ccc(OC)cc2)nc1O

$$$$

  CDD

  0  0  0  0  0  0            999 V2000
M  END
> <Molecule Name>
CVD-0007162

> <SMILES>
Cc1ccc(C)c(NC(=O)CSc2nc(C)cc(O)n2)c1

$$$$

  CDD

  0  0  0  0  0  0            999 V2000
M  END
> <Molecule Name>
CVD-0007161

> <SMILES>
Clc1ccccc1NC(=O)NCCNc1cc(ncn1)N1CCOCC1

$$$$

  CDD

  0  0  0  0  0  0            999 V2000
M  END
> <Molecule Name>
CVD-0007160

> <SMILES>
Cc1sc2nc(SCc3ccc(cc3)C(=O)NCCO)nc(N)c2c1C

$$$$

  CDD

  0  0  0  0  0  0            999 V2000
M  END
> <Molecule Name>
CVD-0007159

> <SMILES>
CC(Sc1nc(C)cc(C)n1)C(=O)Nc1ccc(cc1)S(N)(=O)=O

$$$$

  CDD

  0  0  0  0  0  0            999 V2000
M  END
> <Molecule Name>
CVD-0007158

> <SMILES>
CCOC(=O)c1c(NC(=O)CSc2nc(C)c3CCCCc3n2)sc2CCCCc12

$$$$

  CDD

  0  0  0  0  0  0            999 V2000
M  END
> <Molecule Name>
CVD-0007157

> <SMILES>
Cc1ccc(NC(=O)NCCNc2cc(ncn2)N2CCOCC2)cc1F

$$$$

  CDD

  0  0  0  0  0  0            999 V2000
M  END
> <Molecule Name>
CVD-0007156

> <SMILES>
Cc1[nH]c2ccccc2c1C(=O)CSc1nc(C)cc(O)n1

$$$$

  CDD

  0  0  0  0  0  0            999 V2000
M  END
> <Molecule Name>
CVD-0007155

> <SMILES>
Cc1nc2ncnn2c2ccn(CCN3CCOCC3)c(=O)c12

$$$$

  CDD

  0  0  0  0  0  0            999 V2000
M  END
> <Molecule Name>
CVD-0007154

> <SMILES>
Oc1ccnc(SCC(=O)Nc2ccccc2Cl)n1

$$$$

  CDD

  0  0  0  0  0  0            999 V2000
M  END
> <Molecule Name>
CVD-0007153

> <SMILES>
CCc1ccccc1NC(=O)NCCNc1cc(nc(C)n1)N1CCOCC1

$$$$

  CDD

  0  0  0  0  0  0            999 V2000
M  END
> <Molecule Name>
CVD-0007152

> <SMILES>
Cc1cc(C)nc(SCC(=O)c2cc(c(O)c(c2)C(C)(C)C)C(C)(C)C)n1

$$$$

  CDD

  0  0  0  0  0  0            999 V2000
M  END
> <Molecule Name>
CVD-0007151

> <SMILES>
O=C(CSc1ncnc2sc3CCCCc3c12)N1CCOCC1

$$$$

  CDD

  0  0  0  0  0  0            999 V2000
M  END
> <Molecule Name>
CVD-0007150

> <SMILES>
CCc1cccc(NC(=O)NCCNc2cc(ncn2)N2CCOCC2)c1

$$$$

  CDD

  0  0  0  0  0  0            999 V2000
M  END
> <Molecule Name>
CVD-0007149

> <SMILES>
COC(=O)CN1C(=O)CN(C1=O)c1nc(C)cc(C)n1

$$$$

  CDD

  0  0  0  0  0  0            999 V2000
M  END
> <Molecule Name>
CVD-0007148

> <SMILES>
CSc1nc(N)nc(SC2CCCC=C2)c1C#N

$$$$

  CDD

  0  0  0  0  0  0            999 V2000
M  END
> <Molecule Name>
CVD-0007147

> <SMILES>
COc1ccc(NC(=O)C(C)Sc2nc(N)cc(O)n2)cc1

$$$$

  CDD

  0  0  0  0  0  0            999 V2000
M  END
> <Molecule Name>
CVD-0007146

> <SMILES>
Oc1ccnc(SCC(=O)NCc2ccc3OCOc3c2)n1

$$$$

  CDD

  0  0  0  0  0  0            999 V2000
M  END
> <Molecule Name>
CVD-0007145

> <SMILES>
CCNc1cc(C)nc(n1)N1CCN(CC1)C(=O)CNC(=O)c1ccccc1

$$$$

  CDD

  0  0  0  0  0  0            999 V2000
M  END
> <Molecule Name>
CVD-0007144

> <SMILES>
Cc1nc(NCCNC(=O)Nc2ccccc2C)cc(n1)N1CCOCC1

$$$$

  CDD

  0  0  0  0  0  0            999 V2000
M  END
> <Molecule Name>
CVD-0007143

> <SMILES>
CSc1nc(SCC(O)=O)c2sc3CC(C)(C)OCc3c2n1

$$$$

  CDD

  0  0  0  0  0  0            999 V2000
M  END
> <Molecule Name>
CVD-0007142

> <SMILES>
COc1ccc(cc1Cc1c(O)nc(SCc2ccccc2)nc1O)C(C)=O

$$$$

  CDD

  0  0  0  0  0  0            999 V2000
M  END
> <Molecule Name>
CVD-0007141

> <SMILES>
Cc1nc(NCCNC(=O)Nc2cccc(F)c2C)cc(n1)N1CCOCC1

$$$$

  CDD

  0  0  0  0  0  0            999 V2000
M  END
> <Molecule Name>
CVD-0007140

> <SMILES>
CC1CCc2c(C1)sc1ncnc(SCC(=O)N3CCOCC3)c21

$$$$

  CDD

  0  0  0  0  0  0            999 V2000
M  END
> <Molecule Name>
CVD-0007139

> <SMILES>
Cc1ccc(NC(=O)NCCNc2cc(ncn2)N2CCOCC2)c(C)c1

$$$$

  CDD

  0  0  0  0  0  0            999 V2000
M  END
> <Molecule Name>
CVD-0007138

> <SMILES>
Cc1noc(C)c1S(=O)(=O)N1CCN(CC1)c1nc(C)cc(n1)N1CCCCC1

$$$$

  CDD

  0  0  0  0  0  0            999 V2000
M  END
> <Molecule Name>
CVD-0007137

> <SMILES>
Nc1ccc(cc1)S(=O)(=O)Nc1nccc(\C=C\c2ccccc2F)n1

$$$$

  CDD

  0  0  0  0  0  0            999 V2000
M  END
> <Molecule Name>
CVD-0007136

> <SMILES>
Cc1cc(O)nc(SCC(=O)Nc2ccccc2Br)n1

$$$$

  CDD

  0  0  0  0  0  0            999 V2000
M  END
> <Molecule Name>
CVD-0007135

> <SMILES>
NC(=O)C1CCN(Cc2nc(O)c3ccccc3n2)CC1

$$$$

  CDD

  0  0  0  0  0  0            999 V2000
M  END
> <Molecule Name>
CVD-0007134

> <SMILES>
OC(=O)C(Cc1c[nH]c2ccccc12)Nc1ncccn1

$$$$

  CDD

  0  0  0  0  0  0            999 V2000
M  END
> <Molecule Name>
CVD-0007133

> <SMILES>
Cc1ccnc(SCc2cc(=O)n3c(nc4ccccc34)n2Cc2ccccc2)n1

$$$$

  CDD

  0  0  0  0  0  0            999 V2000
M  END
> <Molecule Name>
CVD-0007132

> <SMILES>
Nc1ccc(cc1)S(=O)(=O)Nc1nccc(\C=C\c2cccs2)n1

$$$$

  CDD

  0  0  0  0  0  0            999 V2000
M  END
> <Molecule Name>
CVD-0007131

> <SMILES>
Cc1cc(O)nc(SCC(=O)Nc2ccc(I)cc2)n1

$$$$

  CDD

  0  0  0  0  0  0            999 V2000
M  END
> <Molecule Name>
CVD-0007130

> <SMILES>
Cc1nc(NCCNS(=O)(=O)c2ccccc2F)cc(n1)N1CCOCC1

$$$$

  CDD

  0  0  0  0  0  0            999 V2000
M  END
> <Molecule Name>
CVD-0007129

> <SMILES>
Cc1ccc(NC(=O)NCCNc2cc(ncn2)N2CCOCC2)cc1Cl

$$$$

  CDD

  0  0  0  0  0  0            999 V2000
M  END
> <Molecule Name>
CVD-0007128

> <SMILES>
CSc1nc(SCC(N)=O)c2sc3CC(C)(C)OCc3c2n1

$$$$

  CDD

  0  0  0  0  0  0            999 V2000
M  END
> <Molecule Name>
CVD-0007127

> <SMILES>
CCSc1nc(SCC(N)=O)c2sc3CC(C)(C)OCc3c2n1

$$$$

  CDD

  0  0  0  0  0  0            999 V2000
M  END
> <Molecule Name>
CVD-0007126

> <SMILES>
CCc1cccc(NC(=O)NCCNc2cc(nc(C)n2)N2CCOCC2)c1

$$$$

  CDD

  0  0  0  0  0  0            999 V2000
M  END
> <Molecule Name>
CVD-0007125

> <SMILES>
Fc1ccc(NC(=O)NCCNc2cc(ncn2)N2CCOCC2)cc1

$$$$

  CDD

  0  0  0  0  0  0            999 V2000
M  END
> <Molecule Name>
CVD-0007124

> <SMILES>
Cc1cc(C)cc(NC(=O)NCCNc2cc(nc(C)n2)N2CCOCC2)c1

$$$$

  CDD

  0  0  0  0  0  0            999 V2000
M  END
> <Molecule Name>
CVD-0007123

> <SMILES>
Clc1cccc(NC(=O)NCCNc2cc(ncn2)N2CCOCC2)c1

$$$$

  CDD

  0  0  0  0  0  0            999 V2000
M  END
> <Molecule Name>
CVD-0007122

> <SMILES>
Cc1ccc(NC(=O)NCCNc2cc(ncn2)N2CCOCC2)c(Cl)c1

$$$$

  CDD

  0  0  0  0  0  0            999 V2000
M  END
> <Molecule Name>
CVD-0007121

> <SMILES>
Cc1ccc(cc1)S(=O)(=O)NCCNc1cc(nc(C)n1)N1CCOCC1

$$$$

  CDD

  0  0  0  0  0  0            999 V2000
M  END
> <Molecule Name>
CVD-0007120

> <SMILES>
CSc1cccc(NC(=O)NCCNc2cc(nc(C)n2)N2CCOCC2)c1

$$$$

  CDD

  0  0  0  0  0  0            999 V2000
M  END
> <Molecule Name>
CVD-0007119

> <SMILES>
CCOC(=O)c1c(NC(=O)CSc2nc(C)cc(n2)-c2ccccc2)sc2CCCCc12

$$$$

  CDD

  0  0  0  0  0  0            999 V2000
M  END
> <Molecule Name>
CVD-0007118

> <SMILES>
Nc1ncc2C(=O)CC(Cc2n1)c1ccco1

$$$$

  CDD

  0  0  0  0  0  0            999 V2000
M  END
> <Molecule Name>
CVD-0007117

> <SMILES>
NC(=O)CSc1nc(SCC(N)=O)c2ccccc2n1

$$$$

  CDD

  0  0  0  0  0  0            999 V2000
M  END
> <Molecule Name>
CVD-0007116

> <SMILES>
Cc1ccc(NC(=O)NCCNc2cc(nc(C)n2)N2CCOCC2)c(C)c1

$$$$

  CDD

  0  0  0  0  0  0            999 V2000
M  END
> <Molecule Name>
CVD-0007115

> <SMILES>
Cc1nc(NCCNC(=O)Nc2ccc(C)c(F)c2)cc(n1)N1CCOCC1

$$$$

  CDD

  0  0  0  0  0  0            999 V2000
M  END
> <Molecule Name>
CVD-0007114

> <SMILES>
Cc1nc(NCCNC(=O)Nc2ccc(F)cc2F)cc(n1)N1CCOCC1

$$$$

  CDD

  0  0  0  0  0  0            999 V2000
M  END
> <Molecule Name>
CVD-0007113

> <SMILES>
CC1(C)Cc2c(sc3ncn4nc(nc4c23)-c2ccccc2O)C(C)(C)N1

$$$$

  CDD

  0  0  0  0  0  0            999 V2000
M  END
> <Molecule Name>
CVD-0007112

> <SMILES>
Cc1nc(NCCNS(=O)(=O)c2ccc(F)cc2)cc(n1)N1CCOCC1

$$$$

  CDD

  0  0  0  0  0  0            999 V2000
M  END
> <Molecule Name>
CVD-0007111

> <SMILES>
Cc1ccn(n1)-c1cc(NCCNC(=O)Cc2ccc(F)cc2)ncn1

$$$$

  CDD

  0  0  0  0  0  0            999 V2000
M  END
> <Molecule Name>
CVD-0007110

> <SMILES>
NC(=O)C1CCN(CC1)c1nc(NCCCO)c2ccccc2n1

$$$$

  CDD

  0  0  0  0  0  0            999 V2000
M  END
> <Molecule Name>
CVD-0007109

> <SMILES>
Cc1ccc(NC(=O)NCCNc2cc(nc(C)n2)N2CCOCC2)c(Cl)c1

$$$$

  CDD

  0  0  0  0  0  0            999 V2000
M  END
> <Molecule Name>
CVD-0007108

> <SMILES>
Nc1nc(SCC(=O)NCCO)nc2sc3CCCCc3c12

$$$$

  CDD

  0  0  0  0  0  0            999 V2000
M  END
> <Molecule Name>
CVD-0007107

> <SMILES>
Fc1cccc(NC(=O)NCCNc2cc(ncn2)N2CCOCC2)c1

$$$$

  CDD

  0  0  0  0  0  0            999 V2000
M  END
> <Molecule Name>
CVD-0007106

> <SMILES>
Cc1nc(NCCNC(=O)Nc2ccc(C)c(Cl)c2)cc(n1)N1CCOCC1

$$$$

  CDD

  0  0  0  0  0  0            999 V2000
M  END
> <Molecule Name>
CVD-0007105

> <SMILES>
Cc1cccc(NC(=O)NCCNc2cc(ncn2)N2CCOCC2)c1

$$$$

  CDD

  0  0  0  0  0  0            999 V2000
M  END
> <Molecule Name>
CVD-0007104

> <SMILES>
Cc1cc(C)n2nc(SCC(=O)Nc3ccc(O)cc3)nc2n1

$$$$

  CDD

  0  0  0  0  0  0            999 V2000
M  END
> <Molecule Name>
CVD-0007103

> <SMILES>
Cc1sc2nc(SCC(=O)NCCO)nc(N)c2c1C

$$$$

  CDD

  0  0  0  0  0  0            999 V2000
M  END
> <Molecule Name>
CVD-0007102

> <SMILES>
CCCc1cc(O)nc(SCC(=O)Nc2cccc(OC)c2)n1

$$$$

  CDD

  0  0  0  0  0  0            999 V2000
M  END
> <Molecule Name>
CVD-0007101

> <SMILES>
Oc1cc(O)nc(SCC(=O)Nc2ccc(Cl)cc2Cl)n1

$$$$

  CDD

  0  0  0  0  0  0            999 V2000
M  END
> <Molecule Name>
CVD-0007100

> <SMILES>
Fc1ccc(NC(=O)NCCNc2cc(ncn2)N2CCOCC2)cc1Cl

$$$$

  CDD

  0  0  0  0  0  0            999 V2000
M  END
> <Molecule Name>
CVD-0007099

> <SMILES>
Cc1ccc(c(C)c1)S(=O)(=O)NCCNc1cc(nc(C)n1)N1CCOCC1

$$$$

  CDD

  0  0  0  0  0  0            999 V2000
M  END
> <Molecule Name>
CVD-0007098

> <SMILES>
Cc1nc(NCCNC(=O)Nc2cccc(Cl)c2)cc(n1)N1CCOCC1

$$$$

  CDD

  0  0  0  0  0  0            999 V2000
M  END
> <Molecule Name>
CVD-0007097

> <SMILES>
CC(=O)Nc1ccc(NC(=O)CSc2nccc(O)n2)cc1

$$$$

  CDD

  0  0  0  0  0  0            999 V2000
M  END
> <Molecule Name>
CVD-0007096

> <SMILES>
Cc1cccc(NC(=O)NCCNc2cc(nc(C)n2)N2CCOCC2)c1

$$$$

  CDD

  0  0  0  0  0  0            999 V2000
M  END
> <Molecule Name>
CVD-0007095

> <SMILES>
Cc1nc(NCCNS(=O)(=O)c2ccc(F)cc2F)cc(n1)N1CCOCC1

$$$$

  CDD

  0  0  0  0  0  0            999 V2000
M  END
> <Molecule Name>
CVD-0007094

> <SMILES>
Cc1nc(NCCNC(=O)Nc2cc(F)cc(F)c2)cc(n1)N1CCOCC1

$$$$

  CDD

  0  0  0  0  0  0            999 V2000
M  END
> <Molecule Name>
CVD-0007093

> <SMILES>
CSc1nc(N)nc(SCC(=O)Nc2cccc(F)c2)c1C#N

$$$$

  CDD

  0  0  0  0  0  0            999 V2000
M  END
> <Molecule Name>
CVD-0007092

> <SMILES>
Nc1ccc(cc1)S(=O)(=O)Nc1nccc(\C=C\c2cccc(F)c2)n1

$$$$

  CDD

  0  0  0  0  0  0            999 V2000
M  END
> <Molecule Name>
CVD-0007091

> <SMILES>
COc1ccc(Br)cc1Cc1nc(C)cc(n1)-n1cc(F)c(=O)[nH]c1=O

$$$$

  CDD

  0  0  0  0  0  0            999 V2000
M  END
> <Molecule Name>
CVD-0007090

> <SMILES>
CC(=O)Nc1ccc(cc1)C(=O)CSc1nc(O)c2ccccc2n1

$$$$

  CDD

  0  0  0  0  0  0            999 V2000
M  END
> <Molecule Name>
CVD-0007089

> <SMILES>
NC(=O)CSc1nc(SCC(N)=O)c2c3CCCCc3[nH]c2n1

$$$$

  CDD

  0  0  0  0  0  0            999 V2000
M  END
> <Molecule Name>
CVD-0007088

> <SMILES>
O=C1CC(Cc2nc(NCc3ccccc3)ncc12)c1ccco1

$$$$

  CDD

  0  0  0  0  0  0            999 V2000
M  END
> <Molecule Name>
CVD-0007087

> <SMILES>
ClCC(=O)N1CCC(CC1)C(=O)N[C@@H]1CCCN(C1)S(=O)(=O)c1cccs1

$$$$

  CDD

  0  0  0  0  0  0            999 V2000
M  END
> <Molecule Name>
CVD-0007086

> <SMILES>
ClCC(=O)N1CCC(CC1)C(=O)NCc1ccc(cc1)S(=O)(=O)N1CCCCC1

$$$$

  CDD

  0  0  0  0  0  0            999 V2000
M  END
> <Molecule Name>
CVD-0007085

> <SMILES>
ClCC(=O)N1CCC(CC1)C(=O)NCc1ccccc1S(=O)(=O)N1CCCC1

$$$$

  CDD

  0  0  0  0  0  0            999 V2000
M  END
> <Molecule Name>
CVD-0007084

> <SMILES>
ClCC(=O)N1CCC(CC1)C(=O)NCc1ccccc1S(=O)(=O)N1CCCCC1

$$$$

  CDD

  0  0  0  0  0  0            999 V2000
M  END
> <Molecule Name>
CVD-0007083

> <SMILES>
ClCC(=O)N1CCC(CC1)C(=O)NCc1ccccc1S(=O)(=O)N1CCOCC1

$$$$

  CDD

  0  0  0  0  0  0            999 V2000
M  END
> <Molecule Name>
CVD-0007082

> <SMILES>
Oc1ccc(cc1NC(=O)C1CCN(CC1)C(=O)CCl)S(=O)(=O)N1CCOCC1

$$$$

  CDD

  0  0  0  0  0  0            999 V2000
M  END
> <Molecule Name>
CVD-0007081

> <SMILES>
NS(=O)(=O)c1ccc2cccc(NC(=O)C3CCN(CC3)C(=O)CCl)c2c1

$$$$

  CDD

  0  0  0  0  0  0            999 V2000
M  END
> <Molecule Name>
CVD-0007080

> <SMILES>
ClCC(=O)N1CCC(CC1)C(=O)NCc1ccc(s1)S(=O)(=O)N1CCOCC1

$$$$

  CDD

  0  0  0  0  0  0            999 V2000
M  END
> <Molecule Name>
CVD-0007079

> <SMILES>
ClCC(=O)N1CCC(CC1)C(=O)NC1CN(C1)S(=O)(=O)c1ccc2OCCOc2c1

$$$$

  CDD

  0  0  0  0  0  0            999 V2000
M  END
> <Molecule Name>
CVD-0007078

> <SMILES>
ClCC(=O)N1CCC(CC1)C(=O)NCc1cccc(c1)S(=O)(=O)N1CCCCC1

$$$$

  CDD

  0  0  0  0  0  0            999 V2000
M  END
> <Molecule Name>
CVD-0007077

> <SMILES>
CCCN(Cc1ccc(OCC)c(OCC)c1)C(=O)C1CCN(CC1)C(=O)CCl

$$$$

  CDD

  0  0  0  0  0  0            999 V2000
M  END
> <Molecule Name>
CVD-0007076

> <SMILES>
ClCC(=O)N1CCC(CC1)C(=O)NCc1ccc(cc1)C(=O)OCc1ccccc1

$$$$

  CDD

  0  0  0  0  0  0            999 V2000
M  END
> <Molecule Name>
CVD-0007075

> <SMILES>
CC(C)COc1ccc(cc1)C(C)NC(=O)C1CCN(CC1)C(=O)CCl

$$$$

  CDD

  0  0  0  0  0  0            999 V2000
M  END
> <Molecule Name>
CVD-0007074

> <SMILES>
CCc1ccc(CN(Cc2cccnc2)C(=O)C2CCN(CC2)C(=O)CCl)cc1

$$$$

  CDD

  0  0  0  0  0  0            999 V2000
M  END
> <Molecule Name>
CVD-0007073

> <SMILES>
CC(C)(C)C1CN(CCN1CCOc1ccccc1)C(=O)C1CCN(CC1)C(=O)CCl

$$$$

  CDD

  0  0  0  0  0  0            999 V2000
M  END
> <Molecule Name>
CVD-0007072

> <SMILES>
CC(C)(C)c1cccc(c1)C(NC(=O)C1CCN(CC1)C(=O)CCl)c1ccc(Cl)cc1

$$$$

  CDD

  0  0  0  0  0  0            999 V2000
M  END
> <Molecule Name>
CVD-0007071

> <SMILES>
CC(C)(C)OC(=O)NCCCCC(=O)N1CCN(CC1)C(=O)c1ccc(cc1)N(C(=O)C1CCN(CC1)C(=O)CCl)c1nc(ccc1C(N)=O)C1CCN(CC1)C(=O)C=C

$$$$

  CDD

  0  0  0  0  0  0            999 V2000
M  END
> <Molecule Name>
CVD-0007070

> <SMILES>
CC(C)(C)OC(=O)C(C)(NC(=O)C1CCN(CC1)C(=O)CCl)c1ccccc1

$$$$

  CDD

  0  0  0  0  0  0            999 V2000
M  END
> <Molecule Name>
CVD-0007069

> <SMILES>
COC(=O)C(C)(C)N(Cc1cccc(OC)c1OC)C(=O)C1CCN(CC1)C(=O)CCl

$$$$

  CDD

  0  0  0  0  0  0            999 V2000
M  END
> <Molecule Name>
CVD-0007068

> <SMILES>
CN(CCCCN(C)C(=O)C1CCN(CC1)C(=O)CCl)C(=O)OC(C)(C)C

$$$$

  CDD

  0  0  0  0  0  0            999 V2000
M  END
> <Molecule Name>
CVD-0007067

> <SMILES>
Cc1cccc(c1)C(C)(C)CNC(=O)C1CCN(CC1)C(=O)CCl

$$$$

  CDD

  0  0  0  0  0  0            999 V2000
M  END
> <Molecule Name>
CVD-0007066

> <SMILES>
CN(C)C(CNC(=O)C1CCN(CC1)C(=O)CCl)c1ccc(cc1)N(C)C

$$$$

  CDD

  0  0  0  0  0  0            999 V2000
M  END
> <Molecule Name>
CVD-0007065

> <SMILES>
CN(Cc1cc(C)c(OCc2cccc(C)c2)c(C)c1)C(=O)C1CCN(CC1)C(=O)CCl

$$$$

  CDD

  0  0  0  0  0  0            999 V2000
M  END
> <Molecule Name>
CVD-0007064

> <SMILES>
COc1cc(cc(OC)c1OC)N(C(=O)C1CCN(CC1)C(=O)CCl)c1ccc2cc(ccc2n1)S(=O)(=O)N1CCCCC1C

$$$$

  CDD

  0  0  0  0  0  0            999 V2000
M  END
> <Molecule Name>
CVD-0007063

> <SMILES>
CC(C)N(Cc1ccc(s1)-c1ccccc1)C(=O)C1CCN(CC1)C(=O)CCl

$$$$

  CDD

  0  0  0  0  0  0            999 V2000
M  END
> <Molecule Name>
CVD-0007062

> <SMILES>
CC(C)c1ccc(CCCNC(=O)C2CCN(CC2)C(=O)CCl)cc1

$$$$

  CDD

  0  0  0  0  0  0            999 V2000
M  END
> <Molecule Name>
CVD-0007061

> <SMILES>
CC(C)(C)c1ccc(CNC(=O)C2CCN(CC2)C(=O)CCl)s1

$$$$

  CDD

  0  0  0  0  0  0            999 V2000
M  END
> <Molecule Name>
CVD-0007060

> <SMILES>
CC(C)Cc1ccc(cc1)C(NC(=O)C1CCN(CC1)C(=O)CCl)C(C)C

$$$$

  CDD

  0  0  0  0  0  0            999 V2000
M  END
> <Molecule Name>
CVD-0007059

> <SMILES>
CCCCc1ccc(cc1)C(NC(=O)C1CCN(CC1)C(=O)CCl)C(C)C

$$$$

  CDD

  0  0  0  0  0  0            999 V2000
M  END
> <Molecule Name>
CVD-0007058

> <SMILES>
CC(C)(C)N(Cc1ccc(OCC=C)cc1)C(=O)C1CCN(CC1)C(=O)CCl

$$$$

  CDD

  0  0  0  0  0  0            999 V2000
M  END
> <Molecule Name>
CVD-0007057

> <SMILES>
Cc1ccccc1OCCCC(=O)Nc1ccc(CNC(=O)C2CCN(CC2)C(=O)CCl)cc1

$$$$

  CDD

  0  0  0  0  0  0            999 V2000
M  END
> <Molecule Name>
CVD-0007056

> <SMILES>
CC(C)(C)OC(=O)Cc1cccc(CNC(=O)C2CCN(CC2)C(=O)CCl)c1

$$$$

  CDD

  0  0  0  0  0  0            999 V2000
M  END
> <Molecule Name>
CVD-0007055

> <SMILES>
CN(Cc1cccc(NC(=O)OC(C)(C)C)c1)C(=O)C1CCN(CC1)C(=O)CCl

$$$$

  CDD

  0  0  0  0  0  0            999 V2000
M  END
> <Molecule Name>
CVD-0007054

> <SMILES>
CC(N(CC(C)(C)NC(=O)OC(C)(C)C)C(=O)C1CCN(CC1)C(=O)CCl)c1cccc(Cl)c1

$$$$

  CDD

  0  0  0  0  0  0            999 V2000
M  END
> <Molecule Name>
CVD-0007053

> <SMILES>
CC(C)(C)c1ccc(cc1)S(=O)(=O)CCNC(=O)C1CCN(CC1)C(=O)CCl

$$$$

  CDD

  0  0  0  0  0  0            999 V2000
M  END
> <Molecule Name>
CVD-0007052

> <SMILES>
Cc1cccc(NC(=O)CN(CC(=O)Nc2cccc(C)c2C)C(=O)C2CCN(CC2)C(=O)CCl)c1C

$$$$

  CDD

  0  0  0  0  0  0            999 V2000
M  END
> <Molecule Name>
CVD-0007051

> <SMILES>
CC(C)(CNC(=O)C1CCN(CC1)C(=O)CCl)c1coc(n1)-c1ccccc1

$$$$

  CDD

  0  0  0  0  0  0            999 V2000
M  END
> <Molecule Name>
CVD-0007050

> <SMILES>
Cc1ccc(SCCNC(=O)C2CCN(CC2)C(=O)CCl)cc1C

$$$$

  CDD

  0  0  0  0  0  0            999 V2000
M  END
> <Molecule Name>
CVD-0007049

> <SMILES>
CN(C(=O)C1CCN(CC1)C(=O)CCl)C1(CNC(=O)OC(C)(C)C)CCOC1

$$$$

  CDD

  0  0  0  0  0  0            999 V2000
M  END
> <Molecule Name>
CVD-0007048

> <SMILES>
CCN(Cc1ccc(s1)-c1ccc(cc1)C(C)(C)C)C(=O)C1CCN(CC1)C(=O)CCl

$$$$

  CDD

  0  0  0  0  0  0            999 V2000
M  END
> <Molecule Name>
CVD-0007047

> <SMILES>
COc1cccc(c1)C(\F)=C\C1CCN(CC1)C(C)=O

$$$$

  CDD

  0  0  0  0  0  0            999 V2000
M  END
> <Molecule Name>
CVD-0007046

> <SMILES>
CSc1cccc(\C(Cl)=C\C2CCN(CC2)C(C)=O)c1SC

$$$$

  CDD

  0  0  0  0  0  0            999 V2000
M  END
> <Molecule Name>
CVD-0007045

> <SMILES>
COc1ccnc(C(=O)N2CCN(CC2)C(=O)C\C=C\F)c1OC

$$$$

  CDD

  0  0  0  0  0  0            999 V2000
M  END
> <Molecule Name>
CVD-0007044

> <SMILES>
CSc1ccnc(C(=O)N2CCN(CC2)C(=O)C\C=C\F)c1SC

$$$$

  CDD

  0  0  0  0  0  0            999 V2000
M  END
> <Molecule Name>
CVD-0007043

> <SMILES>
COc1cccc(C(=O)N2CCN(CC2)C(C)=O)c1OC

$$$$

  CDD

  0  0  0  0  0  0            999 V2000
M  END
> <Molecule Name>
CVD-0007042

> <SMILES>
CSc1cccc(c1)C(\F)=C(\C)C1CCN(CC1)C(C)=O

$$$$

  CDD

  0  0  0  0  0  0            999 V2000
M  END
> <Molecule Name>
CVD-0007041

> <SMILES>
CSc1cccc(c1)C(\F)=C\C1CCN(CC1)C(C)=O

$$$$

  CDD

  0  0  0  0  0  0            999 V2000
M  END
> <Molecule Name>
CVD-0007040

> <SMILES>
COc1ccnc(c1)C(F)C1CCN(CC1)C(C)=O

$$$$

  CDD

  0  0  0  0  0  0            999 V2000
M  END
> <Molecule Name>
CVD-0007039

> <SMILES>
COc1cccc(C(=O)N2CCN(CC2)C(=O)C\C=C\F)c1OC

$$$$

  CDD

  0  0  0  0  0  0            999 V2000
M  END
> <Molecule Name>
CVD-0007038

> <SMILES>
COc1cccc(c1)C(F)C(=O)N1CCN(CC1)C(C)=O

$$$$

  CDD

  0  0  0  0  0  0            999 V2000
M  END
> <Molecule Name>
CVD-0007037

> <SMILES>
COc1c(SC)cccc1C(=O)N1CCN(CC1)C(=O)C\C=C\F

$$$$

  CDD

  0  0  0  0  0  0            999 V2000
M  END
> <Molecule Name>
CVD-0007036

> <SMILES>
COc1ccnc(CC2CCN(CC2)C(C)=O)c1OC

$$$$

  CDD

  0  0  0  0  0  0            999 V2000
M  END
> <Molecule Name>
CVD-0007035

> <SMILES>
COc1cccc(C(F)C2CCN(CC2)C(C)=O)c1OC

$$$$

  CDD

  0  0  0  0  0  0            999 V2000
M  END
> <Molecule Name>
CVD-0007034

> <SMILES>
CSc1cccc(C(=O)N2CCN(CC2)C(=O)C\C=C\F)c1SC

$$$$

  CDD

  0  0  0  0  0  0            999 V2000
M  END
> <Molecule Name>
CVD-0007033

> <SMILES>
COc1cccc(c1)C(F)C1CCN(CC1)C(C)=O

$$$$

  CDD

  0  0  0  0  0  0            999 V2000
M  END
> <Molecule Name>
CVD-0007032

> <SMILES>
COc1ccnc(\C(F)=C(\C2CCN(CC2)C(C)=O)S(N)(=O)=O)c1OC

$$$$

  CDD

  0  0  0  0  0  0            999 V2000
M  END
> <Molecule Name>
CVD-0007031

> <SMILES>
CC(=O)N1CCN(CC1)C(=O)c1ncccc1CCF

$$$$

  CDD

  0  0  0  0  0  0            999 V2000
M  END
> <Molecule Name>
CVD-0007030

> <SMILES>
COc1c(SC)cccc1\C(F)=C\C1CCN(CC1)C(C)=O

$$$$

  CDD

  0  0  0  0  0  0            999 V2000
M  END
> <Molecule Name>
CVD-0007029

> <SMILES>
CSc1cccc(\C(F)=C\C2CCN(CC2)C(C)=O)c1SC

$$$$

  CDD

  0  0  0  0  0  0            999 V2000
M  END
> <Molecule Name>
CVD-0007028

> <SMILES>
COc1c(SC)ccnc1C(=O)N1CCN(CC1)C(=O)C\C=C\F

$$$$

  CDD

  0  0  0  0  0  0            999 V2000
M  END
> <Molecule Name>
CVD-0007027

> <SMILES>
CN1CCN(C(=O)Cc2c[nH]c3ncccc23)c2cc(ccc12)S(N)(=O)=O

$$$$

  CDD

  0  0  0  0  0  0            999 V2000
M  END
> <Molecule Name>
CVD-0007026

> <SMILES>
CC(=O)Nc1ccc(Oc2nccc(Nc3sc(C)nc3-c3ccccc3)n2)cc1

$$$$

  CDD

  0  0  0  0  0  0            999 V2000
M  END
> <Molecule Name>
CVD-0007025

> <SMILES>
Cc1ccncc1NC1CC[C@@H]([C@@H]1c1ccsc1)C(N)=O

$$$$

  CDD

  0  0  0  0  0  0            999 V2000
M  END
> <Molecule Name>
CVD-0007024

> <SMILES>
O=C(Nc1cccnc1)C1=CC=C(C=C2CCCCC12)N1CCCOCC1

$$$$

  CDD

  0  0  0  0  0  0            999 V2000
M  END
> <Molecule Name>
CVD-0007023

> <SMILES>
CC[N+]1([O-])CCN(C(=O)Cc2c[nH]c3ncccc23)c2cc(ccc12)S(N)(=O)=O

$$$$

  CDD

  0  0  0  0  0  0            999 V2000
M  END
> <Molecule Name>
CVD-0007022

> <SMILES>
CS(=O)(=O)NCC(C1CCCCC1)C(=O)Nc1cccnc1

$$$$

  CDD

  0  0  0  0  0  0            999 V2000
M  END
> <Molecule Name>
CVD-0007021

> <SMILES>
Cc1cnc2CN(N(C(=O)Nc3ccccc3)c2c1)C(=O)NC1CC1

$$$$

  CDD

  0  0  0  0  0  0            999 V2000
M  END
> <Molecule Name>
CVD-0007020

> <SMILES>
Cc1ccncc1NC(=O)C1(CCNS(C)(=O)=O)CCCCC1

$$$$

  CDD

  0  0  0  0  0  0            999 V2000
M  END
> <Molecule Name>
CVD-0007019

> <SMILES>
Cc1ccncc1NC(=O)[N+]1(C)CCCc2ccc(cc12)S(N)(=O)=O

$$$$

  CDD

  0  0  0  0  0  0            999 V2000
M  END
> <Molecule Name>
CVD-0007018

> <SMILES>
OC1CCN(CC1)N(C(=O)Nc1cccnc1)c1ccccc1

$$$$

  CDD

  0  0  0  0  0  0            999 V2000
M  END
> <Molecule Name>
CVD-0007017

> <SMILES>
Cc1ccncc1NC(=O)C1(CN2CCC(O)CC2)CCSC1

$$$$

  CDD

  0  0  0  0  0  0            999 V2000
M  END
> <Molecule Name>
CVD-0007016

> <SMILES>
CC(=O)NCCc1c[nH]c2c(NC(=O)Nc3cccnc3)cc(F)cc12

$$$$

  CDD

  0  0  0  0  0  0            999 V2000
M  END
> <Molecule Name>
CVD-0007015

> <SMILES>
COc1[o+]cc(CCNS(C)(=O)=O)c2cc(ccc12)S(N)(=O)=O

$$$$

  CDD

  0  0  0  0  0  0            999 V2000
M  END
> <Molecule Name>
CVD-0007014

> <SMILES>
CC(=O)NCCc1c[nH]c2c(Cc3nnc(C)s3)cc(F)cc12

$$$$

  CDD

  0  0  0  0  0  0            999 V2000
M  END
> <Molecule Name>
CVD-0007013

> <SMILES>
CN(Cc1cc(CCNC(=O)c2ccccc2F)ccn1)C(=O)NC1CC1

$$$$

  CDD

  0  0  0  0  0  0            999 V2000
M  END
> <Molecule Name>
CVD-0007012

> <SMILES>
CS(=O)(=O)NCN(C(=O)Nc1cccnc1)c1ccccc1

$$$$

  CDD

  0  0  0  0  0  0            999 V2000
M  END
> <Molecule Name>
CVD-0007011

> <SMILES>
CS(=O)(=O)NCC1CC[C@@H]([C@@H]1c1ccsc1)C(N)=O

$$$$

  CDD

  0  0  0  0  0  0            999 V2000
M  END
> <Molecule Name>
CVD-0007010

> <SMILES>
Cc1nnc(s1)N(C(=O)Nc1cccnc1)c1cccc(F)c1

$$$$

  CDD

  0  0  0  0  0  0            999 V2000
M  END
> <Molecule Name>
CVD-0007009

> <SMILES>
O=C(NC1CCN(Cc2ccsc2)CC1)Nc1cccnc1

$$$$

  CDD

  0  0  0  0  0  0            999 V2000
M  END
> <Molecule Name>
CVD-0007008

> <SMILES>
O=C(N[C@@H]1CCCN(C1)S(=O)(=O)c1cccs1)Nc1cccnc1

$$$$

  CDD

  0  0  0  0  0  0            999 V2000
M  END
> <Molecule Name>
CVD-0007007

> <SMILES>
O=C(NCC(=O)N1CCN(Cc2ccccc2)CC1)Nc1cccnc1

$$$$

  CDD

  0  0  0  0  0  0            999 V2000
M  END
> <Molecule Name>
CVD-0007006

> <SMILES>
O=C(NCc1cccc(c1)S(=O)(=O)N1CCCCC1)Nc1cccnc1

$$$$

  CDD

  0  0  0  0  0  0            999 V2000
M  END
> <Molecule Name>
CVD-0007005

> <SMILES>
O=C(NC1CN(C1)S(=O)(=O)c1ccc2OCCOc2c1)Nc1cccnc1

$$$$

  CDD

  0  0  0  0  0  0            999 V2000
M  END
> <Molecule Name>
CVD-0007004

> <SMILES>
O=C(NCc1ccc(s1)S(=O)(=O)N1CCCCC1)Nc1cccnc1

$$$$

  CDD

  0  0  0  0  0  0            999 V2000
M  END
> <Molecule Name>
CVD-0007003

> <SMILES>
O=C(NCc1ccc(s1)S(=O)(=O)N1CCOCC1)Nc1cccnc1

$$$$

  CDD

  0  0  0  0  0  0            999 V2000
M  END
> <Molecule Name>
CVD-0007002

> <SMILES>
Cc1ccc(cc1)S(=O)(=O)N1CCC(CC1)NC(=O)Nc1cccnc1

$$$$

  CDD

  0  0  0  0  0  0            999 V2000
M  END
> <Molecule Name>
CVD-0007001

> <SMILES>
CN1CCN(CC1)S(=O)(=O)c1cccc(NC(=O)Nc2cccnc2)c1

$$$$

  CDD

  0  0  0  0  0  0            999 V2000
M  END
> <Molecule Name>
CVD-0007000

> <SMILES>
O=C(NCCc1ccc(s1)S(=O)(=O)N1CCCCC1)Nc1cccnc1

$$$$

  CDD

  0  0  0  0  0  0            999 V2000
M  END
> <Molecule Name>
CVD-0006999

> <SMILES>
ClCC(=O)N1CC2CC1[C@H](CCc1ccccc1)[C@H]2C(=O)N1CCCCC1

$$$$

  CDD

  0  0  0  0  0  0            999 V2000
M  END
> <Molecule Name>
CVD-0006998

> <SMILES>
COc1ccc(cc1)-n1cc(CN2CC3CC2CN3C(=O)CCl)nn1

$$$$

  CDD

  0  0  0  0  0  0            999 V2000
M  END
> <Molecule Name>
CVD-0006997

> <SMILES>
CC(=O)NCCc1c[nH]c2c(cccc12)C(CCc1ccc(cc1)C(F)(F)F)N1CC2CC1CN2C(=O)CCl

$$$$

  CDD

  0  0  0  0  0  0            999 V2000
M  END
> <Molecule Name>
CVD-0006996

> <SMILES>
CC(=O)NCCc1c[nH]c2c(cccc12)C(CCc1ccc(C)cc1)N1CC2CC1CN2C(=O)CCl

$$$$

  CDD

  0  0  0  0  0  0            999 V2000
M  END
> <Molecule Name>
CVD-0006995

> <SMILES>
CC(=O)NCCc1c[nH]c2c(cccc12)C(CCc1ccccc1)N1CC2CC1CN2C(=O)CCl

$$$$

  CDD

  0  0  0  0  0  0            999 V2000
M  END
> <Molecule Name>
CVD-0006994

> <SMILES>
Cc1ccc(CCC(N2CC3CC2CN3C(=O)CCl)c2cccc(c2)C#N)cc1

$$$$

  CDD

  0  0  0  0  0  0            999 V2000
M  END
> <Molecule Name>
CVD-0006993

> <SMILES>
FC(F)(F)c1ccc(CCC(N2CC3CC2CN3C(=O)CCl)c2cccc(c2)C#N)cc1

$$$$

  CDD

  0  0  0  0  0  0            999 V2000
M  END
> <Molecule Name>
CVD-0006992

> <SMILES>
ClCC(=O)N1CC2CC1CN2C(CCc1ccccc1)c1cccc(c1)C#N

$$$$

  CDD

  0  0  0  0  0  0            999 V2000
M  END
> <Molecule Name>
CVD-0006991

> <SMILES>
Cc1ccc(CCC(N2CC3CC2CN3C(=O)CCl)c2cccc(Cl)c2)cc1

$$$$

  CDD

  0  0  0  0  0  0            999 V2000
M  END
> <Molecule Name>
CVD-0006990

> <SMILES>
ClCC(=O)N1CC2CC1CN2C(CCc1ccccc1)c1cccc(Cl)c1

$$$$

  CDD

  0  0  0  0  0  0            999 V2000
M  END
> <Molecule Name>
CVD-0006989

> <SMILES>
CS(=O)(=O)N(CCc1ccccc1)CC1CC2CC1CN2C(=O)CCl

$$$$

  CDD

  0  0  0  0  0  0            999 V2000
M  END
> <Molecule Name>
CVD-0006988

> <SMILES>
CC(=O)NCCc1c[nH]c2c(CN3CC4CC3CN4C(=O)CCl)cccc12

$$$$

  CDD

  0  0  0  0  0  0            999 V2000
M  END
> <Molecule Name>
CVD-0006987

> <SMILES>
ClCC(=O)N1[C@@H](Cc2ccccc2)C2CC1CN2Cc1cccc(Cl)c1

$$$$

  CDD

  0  0  0  0  0  0            999 V2000
M  END
> <Molecule Name>
CVD-0006986

> <SMILES>
CC(C)C[C@@H]1C2CC(CN2C(=O)CCl)N1Cc1cccc(Cl)c1

$$$$

  CDD

  0  0  0  0  0  0            999 V2000
M  END
> <Molecule Name>
CVD-0006985

> <SMILES>
NC(=O)C1C2CC(CN2C(=O)CCl)N1Cc1cccc(Cl)c1

$$$$

  CDD

  0  0  0  0  0  0            999 V2000
M  END
> <Molecule Name>
CVD-0006984

> <SMILES>
Cc1cc(C)nc(NC2CC3CC2CN3C(=O)CCl)n1

$$$$

  CDD

  0  0  0  0  0  0            999 V2000
M  END
> <Molecule Name>
CVD-0006983

> <SMILES>
Cc1cccc(c1)C12CC(N(C1)C(=O)CCl)c1ccccc21

$$$$

  CDD

  0  0  0  0  0  0            999 V2000
M  END
> <Molecule Name>
CVD-0006982

> <SMILES>
CC(=O)NCCc1c[nH]c2c(c(F)ccc12)C12CC(N(C1)C(=O)CCl)c1ccccc21

$$$$

  CDD

  0  0  0  0  0  0            999 V2000
M  END
> <Molecule Name>
CVD-0006981

> <SMILES>
ClCC(=O)N1CC2(CC1c1ccccc21)c1cccc(c1)C#N

$$$$

  CDD

  0  0  0  0  0  0            999 V2000
M  END
> <Molecule Name>
CVD-0006980

> <SMILES>
Nc1cccc(c1)C12CC(N(C1)C(=O)CCl)c1ccccc21

$$$$

  CDD

  0  0  0  0  0  0            999 V2000
M  END
> <Molecule Name>
CVD-0006979

> <SMILES>
Cc1cc(Cl)cc(CC2CC3CC2CN3C(=O)CCl)c1

$$$$

  CDD

  0  0  0  0  0  0            999 V2000
M  END
> <Molecule Name>
CVD-0006978

> <SMILES>
CCNc1ncc(cc1CC1CC2CC1CN2C(=O)CCl)C#N

$$$$

  CDD

  0  0  0  0  0  0            999 V2000
M  END
> <Molecule Name>
CVD-0006977

> <SMILES>
NS(=O)(=O)c1ccc2ccc(NC3CC4CC3CN4C(=O)CCl)cc2c1

$$$$

  CDD

  0  0  0  0  0  0            999 V2000
M  END
> <Molecule Name>
CVD-0006976

> <SMILES>
NS(=O)(=O)c1ccc2ccc(CC3CC4CC3CN4C(=O)CCl)cc2c1

$$$$

  CDD

  0  0  0  0  0  0            999 V2000
M  END
> <Molecule Name>
CVD-0006975

> <SMILES>
CC(=O)NCCc1c[nH]c2c(NC3CC4CC3CN4C(=O)CCl)cc(F)cc12

$$$$

  CDD

  0  0  0  0  0  0            999 V2000
M  END
> <Molecule Name>
CVD-0006974

> <SMILES>
CC(=O)NCCc1c[nH]c2c(CC3CC4CC3CN4C(=O)CCl)cc(F)cc12

$$$$

  CDD

  0  0  0  0  0  0            999 V2000
M  END
> <Molecule Name>
CVD-0006973

> <SMILES>
Cc1cccc(NC2CC3CC2CN3C(=O)CCl)c1

$$$$

  CDD

  0  0  0  0  0  0            999 V2000
M  END
> <Molecule Name>
CVD-0006972

> <SMILES>
CC(=O)[C@@H]1C2C[C@@](CC(N)=O)(CN2C(=O)CCl)N1C(C)=O

$$$$

  CDD

  0  0  0  0  0  0            999 V2000
M  END
> <Molecule Name>
CVD-0006971

> <SMILES>
CC(=O)N1[C@@H](CC(N)=O)C2C[C@@]1(CN2C(=O)CCl)C(C)=O

$$$$

  CDD

  0  0  0  0  0  0            999 V2000
M  END
> <Molecule Name>
CVD-0006970

> <SMILES>
CC(=O)N1C2CC([C@@H]1CC(N)=O)N(C2)C(=O)CCl

$$$$

  CDD

  0  0  0  0  0  0            999 V2000
M  END
> <Molecule Name>
CVD-0006969

> <SMILES>
CC(=O)NCCC1C=Nc2c1cc(F)cc2CN1CC2CC1CN2C(=O)CCl

$$$$

  CDD

  0  0  0  0  0  0            999 V2000
M  END
> <Molecule Name>
CVD-0006968

> <SMILES>
NS(=O)(=O)C1CCc2cc(ccc2C1)C12CC(N(C1)C(=O)CCl)c1ccccc21

$$$$

  CDD

  0  0  0  0  0  0            999 V2000
M  END
> <Molecule Name>
CVD-0006967

> <SMILES>
ClCC(=O)N1C(Cc2cccnc2)C2(CC1c1ccccc21)c1ccccc1

$$$$

  CDD

  0  0  0  0  0  0            999 V2000
M  END
> <Molecule Name>
CVD-0006966

> <SMILES>
ClCC(=O)N1CC2CC1CN2Cc1cc(ccc1CNC(=O)N1CCOCC1)C#N

$$$$

  CDD

  0  0  0  0  0  0            999 V2000
M  END
> <Molecule Name>
CVD-0006965

> <SMILES>
COc1cc(CN2CC3CC2CN3C(=O)CCl)c2ccccc2c1

$$$$

  CDD

  0  0  0  0  0  0            999 V2000
M  END
> <Molecule Name>
CVD-0006964

> <SMILES>
CCNc1ncc(OC)cc1CN1CC2CC1CN2C(=O)CCl

$$$$

  CDD

  0  0  0  0  0  0            999 V2000
M  END
> <Molecule Name>
CVD-0006963

> <SMILES>
CCNc1ncc(cc1CN1CC2CC1CN2C(=O)CCl)C#N

$$$$

  CDD

  0  0  0  0  0  0            999 V2000
M  END
> <Molecule Name>
CVD-0006962

> <SMILES>
CCNc1ccc(cc1CN1CC2CC1CN2C(=O)CCl)C#N

$$$$

  CDD

  0  0  0  0  0  0            999 V2000
M  END
> <Molecule Name>
CVD-0006961

> <SMILES>
ClCC(=O)N1CC2CC1CN2CCNC(=O)c1cccnc1

$$$$

  CDD

  0  0  0  0  0  0            999 V2000
M  END
> <Molecule Name>
CVD-0006960

> <SMILES>
ClCC(=O)N1CC2CC1CN2CCNC(=O)c1cccc2ccccc12

$$$$

  CDD

  0  0  0  0  0  0            999 V2000
M  END
> <Molecule Name>
CVD-0006959

> <SMILES>
CC1C2CC(CN2C(=O)CCl)N1C(F)(F)c1cccc(Cl)c1

$$$$

  CDD

  0  0  0  0  0  0            999 V2000
M  END
> <Molecule Name>
CVD-0006958

> <SMILES>
COCCc1ccc(Cl)cc1CN1CC2CC1CN2C(=O)CCl

$$$$

  CDD

  0  0  0  0  0  0            999 V2000
M  END
> <Molecule Name>
CVD-0006957

> <SMILES>
OCCc1cc(CN2CC3CC2CN3C(=O)CCl)c(cn1)C#N

$$$$

  CDD

  0  0  0  0  0  0            999 V2000
M  END
> <Molecule Name>
CVD-0006956

> <SMILES>
CCNc1ncc(cc1C(N1CC2CC1CN2C(=O)CCl)c1cccc(Cl)c1)C#N

$$$$

  CDD

  0  0  0  0  0  0            999 V2000
M  END
> <Molecule Name>
CVD-0006955

> <SMILES>
COCc1cc(Cl)cc(CN2CC3CC2CN3C(=O)CCl)c1

$$$$

  CDD

  0  0  0  0  0  0            999 V2000
M  END
> <Molecule Name>
CVD-0006954

> <SMILES>
FC(F)(N1CC2CC1CN2C(=O)CCl)c1cccc(Cl)c1

$$$$

  CDD

  0  0  0  0  0  0            999 V2000
M  END
> <Molecule Name>
CVD-0006953

> <SMILES>
NC(=O)C1CC2(CC3CC2N(C3)C(=O)CCl)CC1c1ccccc1

$$$$

  CDD

  0  0  0  0  0  0            999 V2000
M  END
> <Molecule Name>
CVD-0006952

> <SMILES>
ClCC(=O)N1CC2CC1CN2Cc1cnc(Cc2ccccc2)s1

$$$$

  CDD

  0  0  0  0  0  0            999 V2000
M  END
> <Molecule Name>
CVD-0006951

> <SMILES>
CCNc1cccc(C#N)c1CN1CC2CC1CN2C(=O)CCl

$$$$

  CDD

  0  0  0  0  0  0            999 V2000
M  END
> <Molecule Name>
CVD-0006950

> <SMILES>
Cc1ccc(cc1)C(N1CC2CC1CN2C(=O)CCl)c1cccc(C)c1

$$$$

  CDD

  0  0  0  0  0  0            999 V2000
M  END
> <Molecule Name>
CVD-0006949

> <SMILES>
CC(=O)NCCc1c[nH]c2c(cccc12)C(N1CC2CC1CN2C(=O)CCl)c1ccccc1

$$$$

  CDD

  0  0  0  0  0  0            999 V2000
M  END
> <Molecule Name>
CVD-0006948

> <SMILES>
Nc1nc(CN2CC3CC2CN3C(=O)CCl)ncc1Cc1ccccc1

$$$$

  CDD

  0  0  0  0  0  0            999 V2000
M  END
> <Molecule Name>
CVD-0006947

> <SMILES>
ClCC(=O)N1CC2CC1CN2[C@H](c1ccc(Cl)cc1)c1cccc(Cl)c1

$$$$

  CDD

  0  0  0  0  0  0            999 V2000
M  END
> <Molecule Name>
CVD-0006946

> <SMILES>
ClCC(=O)N1CC2CC1CC2C(=O)Nc1ccccc1OC1CCN(Cc2ccccc2)CC1

$$$$

  CDD

  0  0  0  0  0  0            999 V2000
M  END
> <Molecule Name>
CVD-0006945

> <SMILES>
ClCC(=O)N1CC2CC1CN2C1(CC1)c1cccc(Cl)c1

$$$$

  CDD

  0  0  0  0  0  0            999 V2000
M  END
> <Molecule Name>
CVD-0006944

> <SMILES>
ClCC(=O)N1CC2CC1CN2C1(CCO1)c1cccc(Cl)c1

$$$$

  CDD

  0  0  0  0  0  0            999 V2000
M  END
> <Molecule Name>
CVD-0006943

> <SMILES>
ClCC(=O)N1CC2CC1CN2Cc1ncc(Cc2ccccc2)s1

$$$$

  CDD

  0  0  0  0  0  0            999 V2000
M  END
> <Molecule Name>
CVD-0006942

> <SMILES>
Cc1cccc(c1)[C@@H](N1CC2CC1CN2C(=O)CCl)c1cccc(Cl)c1

$$$$

  CDD

  0  0  0  0  0  0            999 V2000
M  END
> <Molecule Name>
CVD-0006941

> <SMILES>
ClCC(=O)N1CC2CC1CN2C(c1cccc(Cl)c1)c1cccc(Cl)c1

$$$$

  CDD

  0  0  0  0  0  0            999 V2000
M  END
> <Molecule Name>
CVD-0006940

> <SMILES>
ClCC(=O)N1CC2CC1CN2S(=O)(=O)c1ccc(Cc2cccc3ccccc23)cc1

$$$$

  CDD

  0  0  0  0  0  0            999 V2000
M  END
> <Molecule Name>
CVD-0006939

> <SMILES>
Cc1cccc(c1)N(C1CC2CC1CN2C(=O)CCl)c1cccc(N)c1

$$$$

  CDD

  0  0  0  0  0  0            999 V2000
M  END
> <Molecule Name>
CVD-0006938

> <SMILES>
Oc1ccc(C[C@H]2C3CC(CN3Cc3cccc(Cl)c3)N2C(=O)CCl)cc1

$$$$

  CDD

  0  0  0  0  0  0            999 V2000
M  END
> <Molecule Name>
CVD-0006937

> <SMILES>
ClCC(=O)N1CC2CC1CN2Cc1cccc(NC(=O)c2cnc(Cc3ccccc3)s2)c1

$$$$

  CDD

  0  0  0  0  0  0            999 V2000
M  END
> <Molecule Name>
CVD-0006936

> <SMILES>
CC(=O)NCCc1c[nH]c2c(cc(Cl)cc12)[C@@]12CC(N(C1)C(=O)CCl)c1ccccc21

$$$$

  CDD

  0  0  0  0  0  0            999 V2000
M  END
> <Molecule Name>
CVD-0006935

> <SMILES>
NS(=O)(=O)c1ccc2CCCN(CCCN3CC4CC3CN4C(=O)CCl)c2c1

$$$$

  CDD

  0  0  0  0  0  0            999 V2000
M  END
> <Molecule Name>
CVD-0006934

> <SMILES>
NS(=O)(=O)c1cccc(c1)-n1cc(CN2CC3CC2CN3C(=O)CCl)nn1

$$$$

  CDD

  0  0  0  0  0  0            999 V2000
M  END
> <Molecule Name>
CVD-0006933

> <SMILES>
NC(=O)CCCC(Cl)C(=O)N1CC2CC1CN2Cc1cccc(F)c1

$$$$

  CDD

  0  0  0  0  0  0            999 V2000
M  END
> <Molecule Name>
CVD-0006932

> <SMILES>
Fc1cccc(CN2CC3CC2CN3C(=O)C(Cl)CCC2NC(=O)NC2=O)c1

$$$$

  CDD

  0  0  0  0  0  0            999 V2000
M  END
> <Molecule Name>
CVD-0006931

> <SMILES>
CC(=O)N[C@@H](Cc1ccc(O)cc1)C(=O)NC(CN1CC2CC1CN2C(=O)CCl)c1ccccc1

$$$$

  CDD

  0  0  0  0  0  0            999 V2000
M  END
> <Molecule Name>
CVD-0006930

> <SMILES>
ClC(C(=O)N1CC2CC1CC2C(=O)Nc1ccccc1)c1cccnc1

$$$$

  CDD

  0  0  0  0  0  0            999 V2000
M  END
> <Molecule Name>
CVD-0006929

> <SMILES>
ClC(Cc1cccnc1)C(=O)N1CC2CC1CC2C(=O)Nc1ccccc1

$$$$

  CDD

  0  0  0  0  0  0            999 V2000
M  END
> <Molecule Name>
CVD-0006928

> <SMILES>
ClCC(=O)N1CC2CC1CN2Cc1cc(Cl)cc2cccc(OCCN3CCOCC3)c12

$$$$

  CDD

  0  0  0  0  0  0            999 V2000
M  END
> <Molecule Name>
CVD-0006927

> <SMILES>
CNC(=O)c1ccc(cc1CN1CC2CC1CN2C(=O)CCl)C#N

$$$$

  CDD

  0  0  0  0  0  0            999 V2000
M  END
> <Molecule Name>
CVD-0006926

> <SMILES>
ClCC(=O)N1CC2CC1CN2Cc1cccc2CCNC(=O)Cc12

$$$$

  CDD

  0  0  0  0  0  0            999 V2000
M  END
> <Molecule Name>
CVD-0006925

> <SMILES>
CC(=O)N1CCCc2cccc(CN3CC4CC3CN4C(=O)CCl)c2C1

$$$$

  CDD

  0  0  0  0  0  0            999 V2000
M  END
> <Molecule Name>
CVD-0006924

> <SMILES>
ClCC(=O)N1CC2CC1CN2Cc1cccc(CNC(=O)N2CCOCC2)c1

$$$$

  CDD

  0  0  0  0  0  0            999 V2000
M  END
> <Molecule Name>
CVD-0006923

> <SMILES>
CNS(=O)(=O)c1ccc(C#N)c(c1)C12CC(N(C1)C(=O)CCl)c1ccccc21

$$$$

  CDD

  0  0  0  0  0  0            999 V2000
M  END
> <Molecule Name>
CVD-0006922

> <SMILES>
CNS(=O)(=O)c1ccc2ccc(CN3CC4CC3CN4C(=O)CCl)cc2c1

$$$$

  CDD

  0  0  0  0  0  0            999 V2000
M  END
> <Molecule Name>
CVD-0006921

> <SMILES>
CS(=O)(=O)N1CCc2ccc(CN3CC4CC3CN4C(=O)CCl)cc2C1

$$$$

  CDD

  0  0  0  0  0  0            999 V2000
M  END
> <Molecule Name>
CVD-0006920

> <SMILES>
NS(=O)(=O)c1ccc2CCCN(CCCCC3CC4CC3N(C4)C(=O)CCl)c2c1

$$$$

  CDD

  0  0  0  0  0  0            999 V2000
M  END
> <Molecule Name>
CVD-0006919

> <SMILES>
NS(=O)(=O)c1ccc2cccc(CN3CC4CC3C(N4C(=O)CCl)c3cccnc3)c2c1

$$$$

  CDD

  0  0  0  0  0  0            999 V2000
M  END
> <Molecule Name>
CVD-0006918

> <SMILES>
NS(=O)(=O)CCc1cccc2sc(nc12)C1CC2CC1N(C2)C(=O)CCl

$$$$

  CDD

  0  0  0  0  0  0            999 V2000
M  END
> <Molecule Name>
CVD-0006917

> <SMILES>
ClCC(=O)N1CC2CC1CN2Cc1cc(Cl)ccc1CNC(=O)N1CCOCC1

$$$$

  CDD

  0  0  0  0  0  0            999 V2000
M  END
> <Molecule Name>
CVD-0006916

> <SMILES>
CC1Cc2ccc(cc2CN1CC1CC2CC1CN2C(=O)CCl)S(N)(=O)=O

$$$$

  CDD

  0  0  0  0  0  0            999 V2000
M  END
> <Molecule Name>
CVD-0006915

> <SMILES>
ClCC(=O)N1CC2CC1CN2Cc1cc(Cl)ccc1CNS(=O)(=O)N1CCOCC1

$$$$

  CDD

  0  0  0  0  0  0            999 V2000
M  END
> <Molecule Name>
CVD-0006914

> <SMILES>
NS(=O)(=O)c1cc2CN(CC3CC4CC3CN4C(=O)CCl)CCc2cc1C(F)F

$$$$

  CDD

  0  0  0  0  0  0            999 V2000
M  END
> <Molecule Name>
CVD-0006913

> <SMILES>
ClCC(=O)N1CC2CC1CN2Cc1cc(Cl)ccc1CNC(=O)N1CCNC(=O)C1

$$$$

  CDD

  0  0  0  0  0  0            999 V2000
M  END
> <Molecule Name>
CVD-0006912

> <SMILES>
Cc1cc2CCN(CC3CC4CC3CN4C(=O)CCl)Cc2cc1S(N)(=O)=O

$$$$

  CDD

  0  0  0  0  0  0            999 V2000
M  END
> <Molecule Name>
CVD-0006911

> <SMILES>
NS(=O)(=O)CCNc1ncccc1CN1CC2CC1CN2C(=O)CCl

$$$$

  CDD

  0  0  0  0  0  0            999 V2000
M  END
> <Molecule Name>
CVD-0006910

> <SMILES>
Cc1cccc(c1)C1(CC(C1)C(N)=O)N1CC2CC1CN2C(=O)CCl

$$$$

  CDD

  0  0  0  0  0  0            999 V2000
M  END
> <Molecule Name>
CVD-0006909

> <SMILES>
NS(=O)(=O)Cc1nc2cccc(CN3CC4CC3CN4C(=O)CCl)c2[nH]1

$$$$

  CDD

  0  0  0  0  0  0            999 V2000
M  END
> <Molecule Name>
CVD-0006908

> <SMILES>
Cc1cccc(CN2C3CC([C@H]2CC(N)=O)N(C3)C(=O)CCl)c1

$$$$

  CDD

  0  0  0  0  0  0            999 V2000
M  END
> <Molecule Name>
CVD-0006907

> <SMILES>
ClCC(=O)N1CC2CC1C(NCc1ccccc1)C2NC(=O)c1ccccc1

$$$$

  CDD

  0  0  0  0  0  0            999 V2000
M  END
> <Molecule Name>
CVD-0006906

> <SMILES>
Cc1ncc(s1)C1(CCCCC1)N1CC2CC1CN2C(=O)CCl

$$$$

  CDD

  0  0  0  0  0  0            999 V2000
M  END
> <Molecule Name>
CVD-0006905

> <SMILES>
O=C(N[C@@H](C[C@@H]1CCNC1=O)C(=O)C(=O)N1CCN(CC1)S(=O)(=O)c1cccs1)[C@H](CC1CC1)NC(=O)c1cc2ccccc2[nH]1

$$$$

  CDD

  0  0  0  0  0  0            999 V2000
M  END
> <Molecule Name>
CVD-0006904

> <SMILES>
O=C(N[C@@H](Cc1ccncc1)C(=O)C(=O)N1CCN(CC1)S(=O)(=O)c1cccs1)[C@H](CC1CC1)NC(=O)c1cc2ccccc2[nH]1

$$$$

  CDD

  0  0  0  0  0  0            999 V2000
M  END
> <Molecule Name>
CVD-0006903

> <SMILES>
Nc1cccn([C@@H](CC2CC2)C(=O)N[C@@H](C[C@@H]2CCNC2=O)C(=O)C(=O)N2CCN(CC2)C(=O)c2cccs2)c1=O

$$$$

  CDD

  0  0  0  0  0  0            999 V2000
M  END
> <Molecule Name>
CVD-0006902

> <SMILES>
Cc1cccc(CN2CCN(CC2)C(=O)C(=O)[C@H](C[C@@H]2CCNC2=O)NC(=O)[C@H](CC2CC2)NC(=O)c2cc3ccccc3[nH]2)c1

$$$$

  CDD

  0  0  0  0  0  0            999 V2000
M  END
> <Molecule Name>
CVD-0006901

> <SMILES>
Cc1ccc(cc1)N([C@@H]1CS(=O)(=O)C=C1)C(=O)C(=O)[C@H](Cc1cccnc1)NC(=O)[C@H](CC1CC1)NC(=O)c1cc2ccccc2[nH]1

$$$$

  CDD

  0  0  0  0  0  0            999 V2000
M  END
> <Molecule Name>
CVD-0006900

> <SMILES>
Cc1ccc(cc1)N([C@@H]1CS(=O)(=O)C=C1)C(=O)C(=O)[C@H](C[C@@H]1CCNC1=O)NC(=O)[C@H](CC1CC1)NC(=O)c1cc2ccccc2[nH]1

$$$$

  CDD

  0  0  0  0  0  0            999 V2000
M  END
> <Molecule Name>
CVD-0006899

> <SMILES>
O=C(N[C@@H](C[C@@H]1CCNC1=O)C(=O)C(=O)N1CCN(CC1)C(=O)c1cccs1)[C@H](CC1CC1)NC(=O)c1cc2ccccc2[nH]1

$$$$

  CDD

  0  0  0  0  0  0            999 V2000
M  END
> <Molecule Name>
CVD-0006898

> <SMILES>
O=C(N[C@@H](Cc1ccncc1)C(=O)C(=O)N1C[C@H](c2ccccc2)c2ccccc2C1)[C@H](CC1CC1)NC(=O)c1cc2ccccc2[nH]1

$$$$

  CDD

  0  0  0  0  0  0            999 V2000
M  END
> <Molecule Name>
CVD-0006897

> <SMILES>
O=C(N[C@@H](C[C@@H]1CCNC1=O)C(=O)C(=O)N1C[C@H](c2ccccc2)c2ccccc2C1)[C@H](CC1CC1)NC(=O)C1=CC2C=CC=CC2N1

$$$$

  CDD

  0  0  0  0  0  0            999 V2000
M  END
> <Molecule Name>
CVD-0006896

> <SMILES>
Cc1cccc(CN2CCN(CC2)C(=O)C(=O)[C@H](Cc2ccncc2)NC(=O)[C@H](CC2CC2)NC(=O)C2=CC3C=CC=CC3N2)c1

$$$$

  CDD

  0  0  0  0  0  0            999 V2000
M  END
> <Molecule Name>
CVD-0006895

> <SMILES>
O=C(N[C@@H](Cc1cccnc1)C(=O)C(=O)N1CCN(CC1)C(=O)c1cccs1)[C@H](CC1CC1)NC(=O)c1cc2ccccc2[nH]1

$$$$

  CDD

  0  0  0  0  0  0            999 V2000
M  END
> <Molecule Name>
CVD-0006894

> <SMILES>
O=C(N[C@@H](Cc1ccncc1)C(=O)C(=O)N1CCN(CC1)C(=O)c1cccs1)[C@H](CC1CC1)NC(=O)c1cc2ccccc2[nH]1

$$$$

  CDD

  0  0  0  0  0  0            999 V2000
M  END
> <Molecule Name>
CVD-0006893

> <SMILES>
ClCC(=O)Nc1cc(ccc1Cl)S(=O)(=O)N1CCCC1

$$$$

  CDD

  0  0  0  0  0  0            999 V2000
M  END
> <Molecule Name>
CVD-0006892

> <SMILES>
ClCC(=O)Nc1cc(ccc1Cl)S(=O)(=O)N1CCCCC1

$$$$

  CDD

  0  0  0  0  0  0            999 V2000
M  END
> <Molecule Name>
CVD-0006891

> <SMILES>
ClCC(=O)Nc1cc(ccc1Cl)S(=O)(=O)N1CCCCCC1

$$$$

  CDD

  0  0  0  0  0  0            999 V2000
M  END
> <Molecule Name>
CVD-0006890

> <SMILES>
ClCC(=O)Nc1cc(ccc1Cl)S(=O)(=O)N1CCOCC1

$$$$

  CDD

  0  0  0  0  0  0            999 V2000
M  END
> <Molecule Name>
CVD-0006889

> <SMILES>
Fc1cccc(Cl)c1CN1CCN(CC1)C(=O)CCl

$$$$

  CDD

  0  0  0  0  0  0            999 V2000
M  END
> <Molecule Name>
CVD-0006888

> <SMILES>
Cc1ccc(NC(=O)CCl)cc1S(=O)(=O)N1CCOCC1

$$$$

  CDD

  0  0  0  0  0  0            999 V2000
M  END
> <Molecule Name>
CVD-0006887

> <SMILES>
ClCC(=O)N1CCc2cc(ccc12)S(=O)(=O)N1CCCCC1

$$$$

  CDD

  0  0  0  0  0  0            999 V2000
M  END
> <Molecule Name>
CVD-0006886

> <SMILES>
Cc1ccc(cc1NC(=O)CCl)S(=O)(=O)N1CCCCC1

$$$$

  CDD

  0  0  0  0  0  0            999 V2000
M  END
> <Molecule Name>
CVD-0006885

> <SMILES>
Cc1ccc(cc1NC(=O)CCl)S(=O)(=O)N1CCOCC1

$$$$

  CDD

  0  0  0  0  0  0            999 V2000
M  END
> <Molecule Name>
CVD-0006884

> <SMILES>
ClCC(=O)N1CCN(CC1)C(=O)Nc1ccccc1

$$$$

  CDD

  0  0  0  0  0  0            999 V2000
M  END
> <Molecule Name>
CVD-0006883

> <SMILES>
ClCC(=O)Nc1cccc(c1)S(=O)(=O)N1CCCC1

$$$$

  CDD

  0  0  0  0  0  0            999 V2000
M  END
> <Molecule Name>
CVD-0006882

> <SMILES>
ClCC(=O)Nc1cccc(c1)S(=O)(=O)N1CCCCC1

$$$$

  CDD

  0  0  0  0  0  0            999 V2000
M  END
> <Molecule Name>
CVD-0006881

> <SMILES>
ClCC(=O)Nc1cccc(c1)S(=O)(=O)N1CCOCC1

$$$$

  CDD

  0  0  0  0  0  0            999 V2000
M  END
> <Molecule Name>
CVD-0006880

> <SMILES>
[O-][N+](=O)c1cc(Cl)ccc1N1CCN(CC1)C(=O)CCl

$$$$

  CDD

  0  0  0  0  0  0            999 V2000
M  END
> <Molecule Name>
CVD-0006879

> <SMILES>
ClCC(=O)NCc1ccccc1S(=O)(=O)N1CCCCC1

$$$$

  CDD

  0  0  0  0  0  0            999 V2000
M  END
> <Molecule Name>
CVD-0006878

> <SMILES>
ClCC(=O)N1CCN(CC1)C(CCc1ccccc1)CC(=O)N1CCN(CC1)C(=O)CCl

$$$$

  CDD

  0  0  0  0  0  0            999 V2000
M  END
> <Molecule Name>
CVD-0006877

> <SMILES>
COc1ccc(NC(=O)C2CC3CC2CN3C(=O)CCl)cn1

$$$$

  CDD

  0  0  0  0  0  0            999 V2000
M  END
> <Molecule Name>
CVD-0006876

> <SMILES>
Cc1cccnc1NC(=O)C1CC2CC1CN2C(=O)CCl

$$$$

  CDD

  0  0  0  0  0  0            999 V2000
M  END
> <Molecule Name>
CVD-0006875

> <SMILES>
CC(=O)c1cccc(NC(=O)C2CC3CC2CN3C(=O)CCl)c1

$$$$

  CDD

  0  0  0  0  0  0            999 V2000
M  END
> <Molecule Name>
CVD-0006874

> <SMILES>
FC(Cl)C(=O)N1CC2CC1CN2Cc1cccc2ccccc12

$$$$

  CDD

  0  0  0  0  0  0            999 V2000
M  END
> <Molecule Name>
CVD-0006873

> <SMILES>
NS(=O)(=O)c1ccc2CCN(CC3CC4CC3CN4C(=O)CCl)Cc2c1

$$$$

  CDD

  0  0  0  0  0  0            999 V2000
M  END
> <Molecule Name>
CVD-0006872

> <SMILES>
NCC1CCc2nc(sc2C1)C1CC2CC1N(C2)C(=O)CCl

$$$$

  CDD

  0  0  0  0  0  0            999 V2000
M  END
> <Molecule Name>
CVD-0006871

> <SMILES>
ClCC(=O)N1CC2CC1CN2C1OC(=O)C(\C=C\c2ccc(cc2)C#N)=C1

$$$$

  CDD

  0  0  0  0  0  0            999 V2000
M  END
> <Molecule Name>
CVD-0006870

> <SMILES>
CS(=O)(=O)NCC(N1CC2CC1CN2C(=O)CCl)c1ccccc1

$$$$

  CDD

  0  0  0  0  0  0            999 V2000
M  END
> <Molecule Name>
CVD-0006869

> <SMILES>
COc1cc(NC(=O)C2CC3CC2CN3C(=O)CCl)cc(OC)c1OC

$$$$

  CDD

  0  0  0  0  0  0            999 V2000
M  END
> <Molecule Name>
CVD-0006868

> <SMILES>
CNC(=O)C(CCN1CC2CC1CN2C(=O)CCl)Nc1ccccc1

$$$$

  CDD

  0  0  0  0  0  0            999 V2000
M  END
> <Molecule Name>
CVD-0006867

> <SMILES>
NS(=O)(=O)CCc1ccccc1CN1CC2CC1CN2C(=O)CCl

$$$$

  CDD

  0  0  0  0  0  0            999 V2000
M  END
> <Molecule Name>
CVD-0006866

> <SMILES>
NS(=O)(=O)c1ccc2cccc(CN3CC4CC3CN4C(=O)CCl)c2c1

$$$$

  CDD

  0  0  0  0  0  0            999 V2000
M  END
> <Molecule Name>
CVD-0006865

> <SMILES>
OC1CCC(CC1)N(Cc1ccccc1C#N)C1CC2CC1CN2C(=O)CCl

$$$$

  CDD

  0  0  0  0  0  0            999 V2000
M  END
> <Molecule Name>
CVD-0006864

> <SMILES>
COc1ccc2C3CC(N(C3c3ccccc3)C(=O)CCl)c2c1

$$$$

  CDD

  0  0  0  0  0  0            999 V2000
M  END
> <Molecule Name>
CVD-0006863

> <SMILES>
ClCC(=O)N1CC2CC1CN2C(C1CCNC(=O)C1)c1ccccc1

$$$$

  CDD

  0  0  0  0  0  0            999 V2000
M  END
> <Molecule Name>
CVD-0006862

> <SMILES>
ClCC(=O)N1CC2CC1CN2Cc1cc(Cl)ccc1CNC(=O)[C@@H]1CCCOC1

$$$$

  CDD

  0  0  0  0  0  0            999 V2000
M  END
> <Molecule Name>
CVD-0006861

> <SMILES>
ClCC(=O)N1CC2CC1CC2C(=O)Nc1ccn(n1)-c1ccccc1

$$$$

  CDD

  0  0  0  0  0  0            999 V2000
M  END
> <Molecule Name>
CVD-0006860

> <SMILES>
ClCC(=O)N1CC2CC1CC2C(=O)Nc1ccccc1Br

$$$$

  CDD

  0  0  0  0  0  0            999 V2000
M  END
> <Molecule Name>
CVD-0006859

> <SMILES>
ClCC(=O)N1CC2CC1CC2C(=O)Nc1ccccc1

$$$$

  CDD

  0  0  0  0  0  0            999 V2000
M  END
> <Molecule Name>
CVD-0006858

> <SMILES>
ClCC(=O)N1CC2CC1CC2C(=O)Nc1cccc(c1)-c1cc[nH]n1

$$$$

  CDD

  0  0  0  0  0  0            999 V2000
M  END
> <Molecule Name>
CVD-0006857

> <SMILES>
ClCC(=O)N1CC2CC1CC2C(=O)Nc1cccc(c1)C1=NN=C2CCCCC12

$$$$

  CDD

  0  0  0  0  0  0            999 V2000
M  END
> <Molecule Name>
CVD-0006856

> <SMILES>
ClCC(=O)N1CC2CC1CC2C(=O)Nc1ccc(cc1)N1CCNC1=O

$$$$

  CDD

  0  0  0  0  0  0            999 V2000
M  END
> <Molecule Name>
CVD-0006855

> <SMILES>
ClCC(=O)N1CC2CC1CC2C(=O)Nc1ccc(Cl)cc1

$$$$

  CDD

  0  0  0  0  0  0            999 V2000
M  END
> <Molecule Name>
CVD-0006854

> <SMILES>
ClCC(=O)N1CC2CC1CC2C(=O)Nc1c[nH]c2ccc(Br)cc12

$$$$

  CDD

  0  0  0  0  0  0            999 V2000
M  END
> <Molecule Name>
CVD-0006853

> <SMILES>
ClCC(=O)N1CC2CC1CC2C(=O)Nc1ccc2c(c1)[nH]c1ccccc21

$$$$

  CDD

  0  0  0  0  0  0            999 V2000
M  END
> <Molecule Name>
CVD-0006852

> <SMILES>
ClCC(=O)N1CC2CC1CC2C(=O)Nc1cc(Cl)nc2ccccc12

$$$$

  CDD

  0  0  0  0  0  0            999 V2000
M  END
> <Molecule Name>
CVD-0006851

> <SMILES>
ClCC(=O)N1CC2CC1CN2C1(CCCCC1)c1ccccc1

$$$$

  CDD

  0  0  0  0  0  0            999 V2000
M  END
> <Molecule Name>
CVD-0006850

> <SMILES>
ClCC(=O)N1CC2CC1CC2c1nc(nc2ccccc12)-c1cccnc1

$$$$

  CDD

  0  0  0  0  0  0            999 V2000
M  END
> <Molecule Name>
CVD-0006849

> <SMILES>
ClCC(=O)N1CC2CC3CN(CC13C2)C(=O)c1ccc[nH]1

$$$$

  CDD

  0  0  0  0  0  0            999 V2000
M  END
> <Molecule Name>
CVD-0006848

> <SMILES>
ClCC(=O)N1CC2CC1C(C2)c1nc(nc2ccccc12)-c1cccnc1

$$$$

  CDD

  0  0  0  0  0  0            999 V2000
M  END
> <Molecule Name>
CVD-0006847

> <SMILES>
OC1CCC(CC1)N(CC1CCCCC1)C1CC2CC1N(C2)C(=O)CCl

$$$$

  CDD

  0  0  0  0  0  0            999 V2000
M  END
> <Molecule Name>
CVD-0006846

> <SMILES>
ClCC(=O)N1CC2CC1CN2Cc1nc(no1)-c1cccs1

$$$$

  CDD

  0  0  0  0  0  0            999 V2000
M  END
> <Molecule Name>
CVD-0006845

> <SMILES>
ClCC(=O)N1CC2CC1CN2Cc1cc(Cl)cc2cnccc12

$$$$

  CDD

  0  0  0  0  0  0            999 V2000
M  END
> <Molecule Name>
CVD-0006844

> <SMILES>
ClCC(=O)N1CC2CC1CN2C(C1CCOCC1)c1ccccc1

$$$$

  CDD

  0  0  0  0  0  0            999 V2000
M  END
> <Molecule Name>
CVD-0006843

> <SMILES>
ClCC(=O)N1CC2CC1CN2C(C1CCCCC1)c1ccccc1

$$$$

  CDD

  0  0  0  0  0  0            999 V2000
M  END
> <Molecule Name>
CVD-0006842

> <SMILES>
OCC(CO)C(N1CC2CC1CN2C(=O)CCl)c1ccccc1

$$$$

  CDD

  0  0  0  0  0  0            999 V2000
M  END
> <Molecule Name>
CVD-0006841

> <SMILES>
ClCC(=O)N1C[C@]2(CC1c1c2cccc1OCCN1CCOCC1)c1cccc(Cl)c1

$$$$

  CDD

  0  0  0  0  0  0            999 V2000
M  END
> <Molecule Name>
CVD-0006840

> <SMILES>
ClCC(=O)N1CC2CC1CC2C(=O)Nc1cccnc1

$$$$

  CDD

  0  0  0  0  0  0            999 V2000
M  END
> <Molecule Name>
CVD-0006839

> <SMILES>
CNC(=O)c1cc2cccc(CN3CC4CC3CN4C(=O)CCl)c2nc1N1CCOCC1

$$$$

  CDD

  0  0  0  0  0  0            999 V2000
M  END
> <Molecule Name>
CVD-0006838

> <SMILES>
CN1CCC(CC1)C(N1CC2CC1CN2C(=O)CCl)c1ccccc1

$$$$

  CDD

  0  0  0  0  0  0            999 V2000
M  END
> <Molecule Name>
CVD-0006837

> <SMILES>
CN(C(=O)C1CC2CC1CN2C(=O)CCl)c1ccccc1

$$$$

  CDD

  0  0  0  0  0  0            999 V2000
M  END
> <Molecule Name>
CVD-0006836

> <SMILES>
CCCc1n[nH]c(n1)C1CN(CCO1)C(=O)C1CC2CC1CN2C(=O)CCl

$$$$

  CDD

  0  0  0  0  0  0            999 V2000
M  END
> <Molecule Name>
CVD-0006835

> <SMILES>
Cc1ccnc2[nH]c(CC3CC4CC3CN4C(=O)CCl)nc12

$$$$

  CDD

  0  0  0  0  0  0            999 V2000
M  END
> <Molecule Name>
CVD-0006834

> <SMILES>
Cc1ccnc(NC(=O)C2CC3CC2CN3C(=O)CCl)c1

$$$$

  CDD

  0  0  0  0  0  0            999 V2000
M  END
> <Molecule Name>
CVD-0006833

> <SMILES>
Cc1cccc(c1)C(CNS(C)(=O)=O)N1CC2CC1CN2C(=O)CCl

$$$$

  CDD

  0  0  0  0  0  0            999 V2000
M  END
> <Molecule Name>
CVD-0006832

> <SMILES>
Cc1n[nH]c(n1)-c1ccc(C)c(NC(=O)C2CC3CC2CN3C(=O)CCl)c1

$$$$

  CDD

  0  0  0  0  0  0            999 V2000
M  END
> <Molecule Name>
CVD-0006831

> <SMILES>
Cc1nnc(o1)C1C2CC(N1C(=O)CCl)c1ccccc21

$$$$

  CDD

  0  0  0  0  0  0            999 V2000
M  END
> <Molecule Name>
CVD-0006830

> <SMILES>
CC(=O)c1ccc(NC(=O)C2CC3CC2CN3C(=O)CCl)cc1

$$$$

  CDD

  0  0  0  0  0  0            999 V2000
M  END
> <Molecule Name>
CVD-0006829

> <SMILES>
CC(=O)Nc1c(C)ccnc1NC(=O)CCl

$$$$

  CDD

  0  0  0  0  0  0            999 V2000
M  END
> <Molecule Name>
CVD-0006828

> <SMILES>
NC(N1CCC(O)C(N)C1)c1ccsc1

$$$$

  CDD

  0  0  0  0  0  0            999 V2000
M  END
> <Molecule Name>
CVD-0006827

> <SMILES>
COC(=O)c1ccc(C(N(C)C(=O)NC2CC2)c2cc(C)on2)c(NS(C)(=O)=O)c1

$$$$

  CDD

  0  0  0  0  0  0            999 V2000
M  END
> <Molecule Name>
CVD-0006826

> <SMILES>
CN(Cc1cc(C)on1)C(=O)NC1CC1N

$$$$

  CDD

  0  0  0  0  0  0            999 V2000
M  END
> <Molecule Name>
CVD-0006825

> <SMILES>
Clc1ccc(s1)C1CN(CCO1)C(=O)CCNC(=O)C=C

$$$$

  CDD

  0  0  0  0  0  0            999 V2000
M  END
> <Molecule Name>
CVD-0006824

> <SMILES>
C=CC(=O)NCc1ccc(s1)S(=O)(=O)N1CCOCC1

$$$$

  CDD

  0  0  0  0  0  0            999 V2000
M  END
> <Molecule Name>
CVD-0006823

> <SMILES>
C=CC(=O)N1CCN(Cc2ccc3OCOc3c2)CC1

$$$$

  CDD

  0  0  0  0  0  0            999 V2000
M  END
> <Molecule Name>
CVD-0006822

> <SMILES>
C=CC(=O)N1CCCN(CC1)S(=O)(=O)c1cccc2cnccc12

$$$$

  CDD

  0  0  0  0  0  0            999 V2000
M  END
> <Molecule Name>
CVD-0006821

> <SMILES>
C=CC(=O)NCCC(=O)N1CCN(CC1)S(=O)(=O)c1ccc2CCCc2c1

$$$$

  CDD

  0  0  0  0  0  0            999 V2000
M  END
> <Molecule Name>
CVD-0006820

> <SMILES>
CN(CC(=O)N1CCN(CC1)S(=O)(=O)c1cc(ccc1C)[N+]([O-])=O)C(=O)C=C

$$$$

  CDD

  0  0  0  0  0  0            999 V2000
M  END
> <Molecule Name>
CVD-0006819

> <SMILES>
C=CC(=O)N1CCC(CC1)C(=O)N1CCN(CC1)S(=O)(=O)c1ccccc1C#N

$$$$

  CDD

  0  0  0  0  0  0            999 V2000
M  END
> <Molecule Name>
CVD-0006818

> <SMILES>
Cc1ccc(C)c(c1)S(=O)(=O)N1CCN(CC1)C(=O)c1ccc(CNC(=O)C=C)cc1

$$$$

  CDD

  0  0  0  0  0  0            999 V2000
M  END
> <Molecule Name>
CVD-0006817

> <SMILES>
CCN(CC(=O)N1CCCN(CC1)S(=O)(=O)c1cccc2cnccc12)C(=O)C=C

$$$$

  CDD

  0  0  0  0  0  0            999 V2000
M  END
> <Molecule Name>
CVD-0006816

> <SMILES>
CN(CC(=O)N1CCN(CC1)S(=O)(=O)c1cccc(Cl)c1)C(=O)C=C

$$$$

  CDD

  0  0  0  0  0  0            999 V2000
M  END
> <Molecule Name>
CVD-0006815

> <SMILES>
CCCN(CC)C(=O)C1CCN(CC1)C(=O)CCl

$$$$

  CDD

  0  0  0  0  0  0            999 V2000
M  END
> <Molecule Name>
CVD-0006814

> <SMILES>
NS(=O)(=O)c1cccc(CN(CC2CCN(CC2n2os2)C(=O)CCl)Cc2cccc(c2)S(N)(=O)=O)c1

$$$$

  CDD

  0  0  0  0  0  0            999 V2000
M  END
> <Molecule Name>
CVD-0006813

> <SMILES>
CC1(C)CN(CC1N)C(=O)C1CCN(CC1)C(=O)CCl

$$$$

  CDD

  0  0  0  0  0  0            999 V2000
M  END
> <Molecule Name>
CVD-0006812

> <SMILES>
OC(=O)C(Cc1cccc(Oc2ccccc2)c1)NC(=O)C1CCN(CC1)C(=O)CCl

$$$$

  CDD

  0  0  0  0  0  0            999 V2000
M  END
> <Molecule Name>
CVD-0006811

> <SMILES>
CC(C)(C)c1cc(no1)N(C(C(=O)NCCc1cccc(F)c1)c1cncc(c1)C#N)C(=O)C=C

$$$$

  CDD

  0  0  0  0  0  0            999 V2000
M  END
> <Molecule Name>
CVD-0006810

> <SMILES>
Cc1cncc(c1)C(N(C(=O)C=C)c1cc(on1)C(C)(C)C)C(=O)NCCc1cccc(F)c1

$$$$

  CDD

  0  0  0  0  0  0            999 V2000
M  END
> <Molecule Name>
CVD-0006809

> <SMILES>
CC(C)(C)c1cc(no1)N(C(C(=O)NCCc1cccc(F)c1)c1cncc(O)c1)C(=O)C=C

$$$$

  CDD

  0  0  0  0  0  0            999 V2000
M  END
> <Molecule Name>
CVD-0006808

> <SMILES>
CC(C)(C)c1cc(no1)N(C(C(=O)NCCc1cccc(F)c1)c1cncc(Cl)c1)C(=O)C=C

$$$$

  CDD

  0  0  0  0  0  0            999 V2000
M  END
> <Molecule Name>
CVD-0006807

> <SMILES>
CC(C)(C)c1cc(no1)N(C(C(=O)NCCc1cccc(F)c1)c1cccnc1)C(=O)C=C

$$$$

  CDD

  0  0  0  0  0  0            999 V2000
M  END
> <Molecule Name>
CVD-0006806

> <SMILES>
Fc1cccc(CCNC(=O)C(N(C(=O)C=C)c2ccc(cc2)C(F)(F)F)c2cccnc2)c1

$$$$

  CDD

  0  0  0  0  0  0            999 V2000
M  END
> <Molecule Name>
CVD-0006805

> <SMILES>
Oc1cncc(c1)C(N(C(=O)C=C)c1ccc(cc1)C(F)(F)F)C(=O)NCCc1cccc(F)c1

$$$$

  CDD

  0  0  0  0  0  0            999 V2000
M  END
> <Molecule Name>
CVD-0006804

> <SMILES>
Fc1cccc(CCNC(=O)C(N(C(=O)C=C)c2ccc(cc2)C(F)(F)F)c2cncc(c2)C#N)c1

$$$$

  CDD

  0  0  0  0  0  0            999 V2000
M  END
> <Molecule Name>
CVD-0006803

> <SMILES>
Cc1cncc(c1)C(N(C(=O)C=C)c1ccc(cc1)C(F)(F)F)C(=O)NCCc1cccc(F)c1

$$$$

  CDD

  0  0  0  0  0  0            999 V2000
M  END
> <Molecule Name>
CVD-0006802

> <SMILES>
Fc1cccc(CCNC(=O)C(N(C(=O)C=C)c2ccc(cc2)C(F)(F)F)c2cncc(Cl)c2)c1

$$$$

  CDD

  0  0  0  0  0  0            999 V2000
M  END
> <Molecule Name>
CVD-0006801

> <SMILES>
CC(C)(C)c1ccc(cc1)N(C(C(=O)NCCc1cccc(F)c1)c1cncc(O)c1)C(=O)C=C

$$$$

  CDD

  0  0  0  0  0  0            999 V2000
M  END
> <Molecule Name>
CVD-0006800

> <SMILES>
CC(C)(C)c1ccc(cc1)N(C(C(=O)NCCc1cccc(F)c1)c1cncc(c1)C#N)C(=O)C=C

$$$$

  CDD

  0  0  0  0  0  0            999 V2000
M  END
> <Molecule Name>
CVD-0006799

> <SMILES>
Cc1cncc(c1)C(N(C(=O)C=C)c1ccc(cc1)C(C)(C)C)C(=O)NCCc1cccc(F)c1

$$$$

  CDD

  0  0  0  0  0  0            999 V2000
M  END
> <Molecule Name>
CVD-0006798

> <SMILES>
CC(C)(C)c1ccc(cc1)N(C(C(=O)NCCc1cccc(F)c1)c1cncc(Cl)c1)C(=O)C=C

$$$$

  CDD

  0  0  0  0  0  0            999 V2000
M  END
> <Molecule Name>
CVD-0006797

> <SMILES>
CCN(C(CF)c1ccccc1)C(=O)C1CCN(CC1)C(=O)CCl

$$$$

  CDD

  0  0  0  0  0  0            999 V2000
M  END
> <Molecule Name>
CVD-0006796

> <SMILES>
CCN(CC(C)(C)F)C(=O)C1CCN(CC1C)C(=O)CCl

$$$$

  CDD

  0  0  0  0  0  0            999 V2000
M  END
> <Molecule Name>
CVD-0006795

> <SMILES>
CC(NC(=O)C1CCN(CC1n1os1)C(=O)CCl)(C(O)=O)c1ccccc1

$$$$

  CDD

  0  0  0  0  0  0            999 V2000
M  END
> <Molecule Name>
CVD-0006794

> <SMILES>
CC(=O)NCCC1CNC2C1CC(F)C1CC(CCC21C#N)N1CCCN(CC1)C(=O)CCl

$$$$

  CDD

  0  0  0  0  0  0            999 V2000
M  END
> <Molecule Name>
CVD-0006793

> <SMILES>
CN(C(=O)C1CCN(CC1)C(=O)CCl)c1nc(C)c(s1)C(O)=O

$$$$

  CDD

  0  0  0  0  0  0            999 V2000
M  END
> <Molecule Name>
CVD-0006792

> <SMILES>
Cn1c(CNC(=O)C2CCN(CC2)C(=O)CCl)nc2CCCC(c12)n1os1

$$$$

  CDD

  0  0  0  0  0  0            999 V2000
M  END
> <Molecule Name>
CVD-0006791

> <SMILES>
CCN(CC(=O)N1CCCN(CC1)S(=O)(=O)c1ccc(Cl)s1)C(=O)C=C

$$$$

  CDD

  0  0  0  0  0  0            999 V2000
M  END
> <Molecule Name>
CVD-0006790

> <SMILES>
Clc1cccc(c1)N1C=N[C@@H](Nc2nc(cn3cnnc23)C#N)C1=O

$$$$

  CDD

  0  0  0  0  0  0            999 V2000
M  END
> <Molecule Name>
CVD-0006789

> <SMILES>
Clc1cccc(c1)N1C=N[C@@H](Nc2nccn3cnnc23)C1=O

$$$$

  CDD

  0  0  0  0  0  0            999 V2000
M  END
> <Molecule Name>
CVD-0006788

> <SMILES>
O=C(Cc1ccccc1)Nc1cccnc1CNC(=O)NC1CC1

$$$$

  CDD

  0  0  0  0  0  0            999 V2000
M  END
> <Molecule Name>
CVD-0006787

> <SMILES>
C=CC(=O)N1CCOC(C1)c1cccs1

$$$$

  CDD

  0  0  0  0  0  0            999 V2000
M  END
> <Molecule Name>
CVD-0006786

> <SMILES>
Brc1ccc(cc1)S(=O)(=O)CCN1CCN(CC1)C(=O)C=C

$$$$

  CDD

  0  0  0  0  0  0            999 V2000
M  END
> <Molecule Name>
CVD-0006785

> <SMILES>
COc1ccc(F)cc1CN1CCN(CC1)C(=O)c1ccc(CNC(=O)C=C)cc1

$$$$

  CDD

  0  0  0  0  0  0            999 V2000
M  END
> <Molecule Name>
CVD-0006784

> <SMILES>
CN(CC(=O)Nc1ccc(Cl)c(c1)S(=O)(=O)N1CCOCC1)C(=O)C=C

$$$$

  CDD

  0  0  0  0  0  0            999 V2000
M  END
> <Molecule Name>
CVD-0006783

> <SMILES>
C=CC(=O)N1CCN(Cc2nc3ccccc3[nH]2)CC1

$$$$

  CDD

  0  0  0  0  0  0            999 V2000
M  END
> <Molecule Name>
CVD-0006782

> <SMILES>
Cc1ccc(NC(=O)C=C)c(c1)S(=O)(=O)N1CCOCC1

$$$$

  CDD

  0  0  0  0  0  0            999 V2000
M  END
> <Molecule Name>
CVD-0006781

> <SMILES>
C=CC(=O)Nc1cccc(CN2CCN(CC2)c2ccccn2)c1

$$$$

  CDD

  0  0  0  0  0  0            999 V2000
M  END
> <Molecule Name>
CVD-0006780

> <SMILES>
C=CC(=O)N(Cc1ccccc1)C1CS(=O)(=O)C=C1

$$$$

  CDD

  0  0  0  0  0  0            999 V2000
M  END
> <Molecule Name>
CVD-0006779

> <SMILES>
C=CC(=O)NCc1ccc(cc1)C(=O)N1CCC(CC1)c1nc2ccccc2s1

$$$$

  CDD

  0  0  0  0  0  0            999 V2000
M  END
> <Molecule Name>
CVD-0006778

> <SMILES>
NC(=O)c1ccc(o1)S(=O)(=O)N1CCN(CC1)C(=O)c1ccc(CNC(=O)C=C)cc1

$$$$

  CDD

  0  0  0  0  0  0            999 V2000
M  END
> <Molecule Name>
CVD-0006777

> <SMILES>
Cc1nc(CS(=O)(=O)CC(=O)c2cncc(C#N)c2C)[nH]c1C(F)(F)F

$$$$

  CDD

  0  0  0  0  0  0            999 V2000
M  END
> <Molecule Name>
CVD-0006776

> <SMILES>
CS(=O)(=O)c1cnc(CC(F)(F)CCc2cncc(c2)C#N)[nH]1

$$$$

  CDD

  0  0  0  0  0  0            999 V2000
M  END
> <Molecule Name>
CVD-0006775

> <SMILES>
FC(F)(F)c1cnc(CS(=O)(=O)CC(=O)c2cncc(c2)C#N)[nH]1

$$$$

  CDD

  0  0  0  0  0  0            999 V2000
M  END
> <Molecule Name>
CVD-0006774

> <SMILES>
FC(F)(F)c1cnc([nH]1)C1CCCN(C1)C(=O)c1cncc(Cl)c1

$$$$

  CDD

  0  0  0  0  0  0            999 V2000
M  END
> <Molecule Name>
CVD-0006773

> <SMILES>
FC(F)(F)c1cnc([nH]1)C1CCCN(C1)C(=O)c1cncc(c1)C#N

$$$$

  CDD

  0  0  0  0  0  0            999 V2000
M  END
> <Molecule Name>
CVD-0006772

> <SMILES>
CCc1nc(ncc1NC(=O)CCl)C1C(F)C1F

$$$$

  CDD

  0  0  0  0  0  0            999 V2000
M  END
> <Molecule Name>
CVD-0006771

> <SMILES>
ClCC(=O)N1CC2CC1CN2C(c1ccccc1)c1ccccc1

$$$$

  CDD

  0  0  0  0  0  0            999 V2000
M  END
> <Molecule Name>
CVD-0006770

> <SMILES>
ClCC(=O)N1CC2CC1CN2Cc1cc(Cl)cc(Cl)c1

$$$$

  CDD

  0  0  0  0  0  0            999 V2000
M  END
> <Molecule Name>
CVD-0006769

> <SMILES>
CS(=O)(=O)N1C2CC(C1c1ccccc1)N(C2)C(=O)CCl

$$$$

  CDD

  0  0  0  0  0  0            999 V2000
M  END
> <Molecule Name>
CVD-0006768

> <SMILES>
Oc1cc(Cl)cc(CN2CC3CC2CN3C(=O)CCl)c1

$$$$

  CDD

  0  0  0  0  0  0            999 V2000
M  END
> <Molecule Name>
CVD-0006767

> <SMILES>
Cc1ccc(cc1)S(=O)(=O)NC1CC2CC1CN2C(=O)CCl

$$$$

  CDD

  0  0  0  0  0  0            999 V2000
M  END
> <Molecule Name>
CVD-0006766

> <SMILES>
CC(CCc1ccccc1)N1CC2CC1CN2C(=O)CCl

$$$$

  CDD

  0  0  0  0  0  0            999 V2000
M  END
> <Molecule Name>
CVD-0006765

> <SMILES>
O=C(N1CC2CC1CN2c1ccccc1)c1cc(=O)[nH]c2ccccc12

$$$$

  CDD

  0  0  0  0  0  0            999 V2000
M  END
> <Molecule Name>
CVD-0006764

> <SMILES>
Cc1cc(C)c(C)c(c1C)S(=O)(=O)N1CC2CC1CN2C(=O)c1cc(=O)[nH]c2ccccc12

$$$$

  CDD

  0  0  0  0  0  0            999 V2000
M  END
> <Molecule Name>
CVD-0006763

> <SMILES>
Oc1ccc(O)c(CN2CC3CC2CN3C(=O)CCl)c1

$$$$

  CDD

  0  0  0  0  0  0            999 V2000
M  END
> <Molecule Name>
CVD-0006762

> <SMILES>
CC(=O)N1CC2CC1CN2C(=O)CCl

$$$$

  CDD

  0  0  0  0  0  0            999 V2000
M  END
> <Molecule Name>
CVD-0006761

> <SMILES>
CC(C)N(C)C(=O)C1CC2CC1CN2C(=O)CCl

$$$$

  CDD

  0  0  0  0  0  0            999 V2000
M  END
> <Molecule Name>
CVD-0006760

> <SMILES>
COc1ccc(cc1)N1CC2CC1CN2C(=O)CCl

$$$$

  CDD

  0  0  0  0  0  0            999 V2000
M  END
> <Molecule Name>
CVD-0006759

> <SMILES>
ClCC(=O)N1CC2CC1CN2Cc1cccs1

$$$$

  CDD

  0  0  0  0  0  0            999 V2000
M  END
> <Molecule Name>
CVD-0006758

> <SMILES>
ClCC(=O)N1CC2CC1CN2C(=O)c1cccs1

$$$$

  CDD

  0  0  0  0  0  0            999 V2000
M  END
> <Molecule Name>
CVD-0006757

> <SMILES>
ClCC(=O)N1CC2CC1CN2S(=O)(=O)c1ccc(Cl)s1

$$$$

  CDD

  0  0  0  0  0  0            999 V2000
M  END
> <Molecule Name>
CVD-0006756

> <SMILES>
ClCC(=O)N1CC2(CC1c1ccccc21)c1ccccc1

$$$$

  CDD

  0  0  0  0  0  0            999 V2000
M  END
> <Molecule Name>
CVD-0006755

> <SMILES>
ClCC(=O)N1CC2CC1CN2Cc1ccsc1

$$$$

  CDD

  0  0  0  0  0  0            999 V2000
M  END
> <Molecule Name>
CVD-0006754

> <SMILES>
ClCC(=O)N1CC2CC1CN2Cc1ccc(Br)s1

$$$$

  CDD

  0  0  0  0  0  0            999 V2000
M  END
> <Molecule Name>
CVD-0006753

> <SMILES>
ClCC(=O)N1CC2CC1CC2C(=O)N1CCCCC1

$$$$

  CDD

  0  0  0  0  0  0            999 V2000
M  END
> <Molecule Name>
CVD-0006752

> <SMILES>
Oc1ccccc1NC(=O)C1CC2CC1CN2C(=O)CCl

$$$$

  CDD

  0  0  0  0  0  0            999 V2000
M  END
> <Molecule Name>
CVD-0006751

> <SMILES>
ClCC(=O)N1CC2CC1CC2NC(=O)c1ccccc1

$$$$

  CDD

  0  0  0  0  0  0            999 V2000
M  END
> <Molecule Name>
CVD-0006750

> <SMILES>
Cc1ccc(C)c(c1)S(=O)(=O)N1CC2CC1CN2C(=O)CCl

$$$$

  CDD

  0  0  0  0  0  0            999 V2000
M  END
> <Molecule Name>
CVD-0006749

> <SMILES>
ClCC(=O)N1CC2CC1CN2Cc1ccc(Cl)s1

$$$$

  CDD

  0  0  0  0  0  0            999 V2000
M  END
> <Molecule Name>
CVD-0006748

> <SMILES>
ClCC(=O)N1CC2CC1CN2S(=O)(=O)c1ccc(Cl)cc1

$$$$

  CDD

  0  0  0  0  0  0            999 V2000
M  END
> <Molecule Name>
CVD-0006747

> <SMILES>
ClCC(=O)N1CC2CC1CN2Cc1cccc2ccccc12

$$$$

  CDD

  0  0  0  0  0  0            999 V2000
M  END
> <Molecule Name>
CVD-0006746

> <SMILES>
ClCC(=O)N1CC2CC1CN2S(=O)(=O)c1ccccc1C#N

$$$$

  CDD

  0  0  0  0  0  0            999 V2000
M  END
> <Molecule Name>
CVD-0006745

> <SMILES>
Cc1ccc(c(C)c1)S(=O)(=O)N1CC2CC1CN2C(=O)CCl

$$$$

  CDD

  0  0  0  0  0  0            999 V2000
M  END
> <Molecule Name>
CVD-0006744

> <SMILES>
Fc1ccccc1S(=O)(=O)N1CC2CC1CN2C(=O)CCl

$$$$

  CDD

  0  0  0  0  0  0            999 V2000
M  END
> <Molecule Name>
CVD-0006743

> <SMILES>
Fc1ccc(cc1)C1OC2CC1N(C2)C(=O)CCl

$$$$

  CDD

  0  0  0  0  0  0            999 V2000
M  END
> <Molecule Name>
CVD-0006742

> <SMILES>
Fc1cccc(F)c1S(=O)(=O)N1CC2CC1CN2C(=O)CCl

$$$$

  CDD

  0  0  0  0  0  0            999 V2000
M  END
> <Molecule Name>
CVD-0006741

> <SMILES>
ClCC(=O)N1CC2CC1C(C2)c1nc2ccccc2s1

$$$$

  CDD

  0  0  0  0  0  0            999 V2000
M  END
> <Molecule Name>
CVD-0006740

> <SMILES>
ClCC(=O)N1CC2CC1CN2C(=O)c1ccco1

$$$$

  CDD

  0  0  0  0  0  0            999 V2000
M  END
> <Molecule Name>
CVD-0006739

> <SMILES>
[O-][N+](=O)c1ccccc1N1CC2CC1CN2C(=O)CCl

$$$$

  CDD

  0  0  0  0  0  0            999 V2000
M  END
> <Molecule Name>
CVD-0006738

> <SMILES>
Cc1ccc(cc1)S(=O)(=O)N1CC2CC1CN2C(=O)CCl

$$$$

  CDD

  0  0  0  0  0  0            999 V2000
M  END
> <Molecule Name>
CVD-0006737

> <SMILES>
Cc1ccc(cc1)C(=O)N1CC2CC1CN2C(=O)CCl

$$$$

  CDD

  0  0  0  0  0  0            999 V2000
M  END
> <Molecule Name>
CVD-0006736

> <SMILES>
Cc1cccc(CN2CC3CC2CN3C(=O)CCl)c1

$$$$

  CDD

  0  0  0  0  0  0            999 V2000
M  END
> <Molecule Name>
CVD-0006735

> <SMILES>
Fc1cccc(c1)S(=O)(=O)N1CC2CC1CN2C(=O)CCl

$$$$

  CDD

  0  0  0  0  0  0            999 V2000
M  END
> <Molecule Name>
CVD-0006734

> <SMILES>
ClCC(=O)N1CC2CC1CN2S(=O)(=O)c1cccs1

$$$$

  CDD

  0  0  0  0  0  0            999 V2000
M  END
> <Molecule Name>
CVD-0006733

> <SMILES>
CNCn1nncc1CC(=O)N[C@H](c1nc2ccccc2n1C)c1ccccc1

$$$$

  CDD

  0  0  0  0  0  0            999 V2000
M  END
> <Molecule Name>
CVD-0006732

> <SMILES>
Cn1c(nc2ccccc12)[C@@H](NC(=O)Cc1cnnn1CN1CCC1)c1ccccc1

$$$$

  CDD

  0  0  0  0  0  0            999 V2000
M  END
> <Molecule Name>
CVD-0006731

> <SMILES>
Cn1c(nc2ccccc12)[C@@H](NC(=O)Cc1cnnn1CN)c1ccccc1

$$$$

  CDD

  0  0  0  0  0  0            999 V2000
M  END
> <Molecule Name>
CVD-0006730

> <SMILES>
Cn1c(nc2ccccc12)[C@@H](NC(=O)Cc1ccncc1)c1ccc(Cl)cc1

$$$$

  CDD

  0  0  0  0  0  0            999 V2000
M  END
> <Molecule Name>
CVD-0006729

> <SMILES>
Cn1nncc1CC(=O)N[C@H](c1nc2ccccc2n1C)c1ccc(Cl)cc1

$$$$

  CDD

  0  0  0  0  0  0            999 V2000
M  END
> <Molecule Name>
CVD-0006728

> <SMILES>
Cn1c(nc2ccccc12)[C@@H](NC(=O)Cc1ccncc1)c1ccccc1

$$$$

  CDD

  0  0  0  0  0  0            999 V2000
M  END
> <Molecule Name>
CVD-0006727

> <SMILES>
Cn1nncc1CC(=O)N[C@H](c1nc2ccccc2n1C)c1ccccc1

$$$$

  CDD

  0  0  0  0  0  0            999 V2000
M  END
> <Molecule Name>
CVD-0006726

> <SMILES>
Cc1ccncc1C(N(C(=O)C=C)c1ccc(cc1-c1ccccc1)C(C)(C)C)C(=O)NCCc1cccc(F)c1

$$$$

  CDD

  0  0  0  0  0  0            999 V2000
M  END
> <Molecule Name>
CVD-0006725

> <SMILES>
CCc1cccc(CO)c1NC(=O)C(N(C(=O)C=C)c1ccc(nc1)C(C)C)c1cccnc1

$$$$

  CDD

  0  0  0  0  0  0            999 V2000
M  END
> <Molecule Name>
CVD-0006724

> <SMILES>
CCc1cccc(CO)c1NC(=O)C(N(C(=O)C=C)c1cc(n[nH]1)C(C)(C)C)c1cccnc1

$$$$

  CDD

  0  0  0  0  0  0            999 V2000
M  END
> <Molecule Name>
CVD-0006723

> <SMILES>
CC(C)c1cccc(C)c1NC(=O)C(N(C(=O)C=C)c1cc(n[nH]1)C(C)(C)C)c1cccnc1

$$$$

  CDD

  0  0  0  0  0  0            999 V2000
M  END
> <Molecule Name>
CVD-0006722

> <SMILES>
CCc1cccc(CCO)c1NC(=O)C(N(C(=O)C=C)c1cc(n[nH]1)C(C)(C)C)c1cccnc1

$$$$

  CDD

  0  0  0  0  0  0            999 V2000
M  END
> <Molecule Name>
CVD-0006721

> <SMILES>
CC(C)c1cccc(CO)c1NC(=O)C(N(C(=O)C=C)c1cc(n[nH]1)C(C)(C)C)c1cccnc1

$$$$

  CDD

  0  0  0  0  0  0            999 V2000
M  END
> <Molecule Name>
CVD-0006720

> <SMILES>
Cc1cccc(CO)c1NC(=O)C(N(C(=O)C=C)c1cc(n[nH]1)C(C)(C)C)c1cccnc1

$$$$

  CDD

  0  0  0  0  0  0            999 V2000
M  END
> <Molecule Name>
CVD-0006719

> <SMILES>
Cc1ccncc1C(N(C(=O)C=C)c1cc(n[nH]1)C(C)(C)C)C(=O)Nc1c(C)cccc1CO

$$$$

  CDD

  0  0  0  0  0  0            999 V2000
M  END
> <Molecule Name>
CVD-0006718

> <SMILES>
Cc1cccc(CO)c1NC(=O)C(N(C(=O)C=C)c1cc2CCCCc2s1)c1cccnc1

$$$$

  CDD

  0  0  0  0  0  0            999 V2000
M  END
> <Molecule Name>
CVD-0006717

> <SMILES>
Cc1cccc(CO)c1NC(=O)C(N(C(=O)C=C)c1cc(n[nH]1)C(C)(C)Cl)c1cccnc1

$$$$

  CDD

  0  0  0  0  0  0            999 V2000
M  END
> <Molecule Name>
CVD-0006716

> <SMILES>
Cc1cccc(CO)c1NC(=O)C(N(C1CC2(CCCC2)CN1)C(=O)C=C)c1cccnc1

$$$$

  CDD

  0  0  0  0  0  0            999 V2000
M  END
> <Molecule Name>
CVD-0006715

> <SMILES>
Cc1cccc(CO)c1NC(=O)C(N(C(=O)C=C)c1cc(n[nH]1)C(C)(C)C)c1ccc(N)nc1

$$$$

  CDD

  0  0  0  0  0  0            999 V2000
M  END
> <Molecule Name>
CVD-0006714

> <SMILES>
CCc1cccc(C)c1NC(=O)C(N(C(=O)C=C)c1cc(n[nH]1)C(C)(C)C#N)c1cccnc1

$$$$

  CDD

  0  0  0  0  0  0            999 V2000
M  END
> <Molecule Name>
CVD-0006713

> <SMILES>
Cc1ccc(CS(N)(=C)=C)cc1NC(=O)C(N(C(=O)C=C)c1ccc(cc1)C(C)(C)C)c1cnccc1C

$$$$

  CDD

  0  0  0  0  0  0            999 V2000
M  END
> <Molecule Name>
CVD-0006712

> <SMILES>
Cc1ccc(CC(C)(C)C)cc1NC(=O)C(N(C(=O)C=C)c1ccc(cc1)C(C)(C)C)c1cnccc1C

$$$$

  CDD

  0  0  0  0  0  0            999 V2000
M  END
> <Molecule Name>
CVD-0006711

> <SMILES>
CCc1cccc(CO)c1NC(=O)C(N(C(=O)C=C)c1ccc(cc1)C(C)(C)C)c1cnccc1C

$$$$

  CDD

  0  0  0  0  0  0            999 V2000
M  END
> <Molecule Name>
CVD-0006710

> <SMILES>
Cc1cccc(CO)c1NC(=O)C(N(C(=O)C=C)c1ccc(cc1)C(C)(C)C)c1cnccc1C

$$$$

  CDD

  0  0  0  0  0  0            999 V2000
M  END
> <Molecule Name>
CVD-0006709

> <SMILES>
CCc1ccc(C)c(NC(=O)C(N(C(=O)C=C)c2ccc(cc2)C(C)(C)C)c2cnccc2C)c1

$$$$

  CDD

  0  0  0  0  0  0            999 V2000
M  END
> <Molecule Name>
CVD-0006708

> <SMILES>
CCc1cccc(C)c1NC(=O)[C@H](N(C(=O)C=C)c1cc(on1)C(C)(C)C#N)c1cnccc1C

$$$$

  CDD

  0  0  0  0  0  0            999 V2000
M  END
> <Molecule Name>
CVD-0006707

> <SMILES>
CCc1cccc(C)c1NC(=O)[C@H](N(C(=O)C=C)c1cc(on1)C(C)(C)C)c1cnccc1C

$$$$

  CDD

  0  0  0  0  0  0            999 V2000
M  END
> <Molecule Name>
CVD-0006706

> <SMILES>
CCc1cccc(C)c1NC(=O)[C@H](N(C(=O)C=C)c1cc(on1)C(C)(C)Cl)c1cnccc1C

$$$$

  CDD

  0  0  0  0  0  0            999 V2000
M  END
> <Molecule Name>
CVD-0006705

> <SMILES>
CNC(=O)[C@H](N(C(=O)C=C)c1cc(on1)C(C)(C)Cl)c1cnccc1C

$$$$

  CDD

  0  0  0  0  0  0            999 V2000
M  END
> <Molecule Name>
CVD-0006704

> <SMILES>
CNC(=O)[C@H](N(C(=O)C=C)c1cc(on1)C(C)(C)C#N)c1cnccc1C

$$$$

  CDD

  0  0  0  0  0  0            999 V2000
M  END
> <Molecule Name>
CVD-0006703

> <SMILES>
CNC(=O)[C@H](N(C(=O)C=C)c1cc(on1)C(C)(C)C)c1cnccc1C

$$$$

  CDD

  0  0  0  0  0  0            999 V2000
M  END
> <Molecule Name>
CVD-0006702

> <SMILES>
CNC(=O)[C@H](N(C(=O)C=C)c1cnn(c1)C(C)(C)C)c1cnccc1C

$$$$

  CDD

  0  0  0  0  0  0            999 V2000
M  END
> <Molecule Name>
CVD-0006701

> <SMILES>
CCc1cccc(C)c1CNC(=O)[C@H](N(C(=O)C=C)c1cnn(c1)C(C)(C)C)c1cnccc1C

$$$$

  CDD

  0  0  0  0  0  0            999 V2000
M  END
> <Molecule Name>
CVD-0006700

> <SMILES>
CNC(=O)[C@H](N(C(=O)C=C)c1cnn(c1)C(C)(C)C#N)c1cnccc1C

$$$$

  CDD

  0  0  0  0  0  0            999 V2000
M  END
> <Molecule Name>
CVD-0006699

> <SMILES>
CCc1cccc(C)c1CNC(=O)[C@H](N(C(=O)C=C)c1cnn(c1)C(C)(C)C#N)c1cnccc1C

$$$$

  CDD

  0  0  0  0  0  0            999 V2000
M  END
> <Molecule Name>
CVD-0006698

> <SMILES>
CCc1cccc(C)c1CNC(=O)[C@H](N(C1CC2(CCCC2)CN1)C(=O)C=C)c1cnccc1C

$$$$

  CDD

  0  0  0  0  0  0            999 V2000
M  END
> <Molecule Name>
CVD-0006697

> <SMILES>
CNC(=O)[C@H](N(C1CC2(CCCC2)CN1)C(=O)C=C)c1cnccc1C

$$$$

  CDD

  0  0  0  0  0  0            999 V2000
M  END
> <Molecule Name>
CVD-0006696

> <SMILES>
CNC(=O)[C@H](N(C(=O)C=C)c1ccc(cn1)C1(CCCC1)C#N)c1cnccc1C

$$$$

  CDD

  0  0  0  0  0  0            999 V2000
M  END
> <Molecule Name>
CVD-0006695

> <SMILES>
CNC(=O)[C@H](N(C(=O)C=C)c1ccc(nc1)C1(CCCC1)C#N)c1cnccc1C

$$$$

  CDD

  0  0  0  0  0  0            999 V2000
M  END
> <Molecule Name>
CVD-0006694

> <SMILES>
CNC(=O)[C@H](N(C(=O)C=C)c1ccc(cc1)C1(CCCC1)C#N)c1cnccc1C

$$$$

  CDD

  0  0  0  0  0  0            999 V2000
M  END
> <Molecule Name>
CVD-0006693

> <SMILES>
CNC(=O)[C@H](N(C(=O)C=C)c1ccc(cc1)C1(Cl)CCCC1)c1cnccc1C

$$$$

  CDD

  0  0  0  0  0  0            999 V2000
M  END
> <Molecule Name>
CVD-0006692

> <SMILES>
CNC(=O)[C@H](N(C(=O)C=C)c1ccc(cn1)C1(Cl)CCCC1)c1cnccc1C

$$$$

  CDD

  0  0  0  0  0  0            999 V2000
M  END
> <Molecule Name>
CVD-0006691

> <SMILES>
CNC(=O)[C@H](N(C(=O)C=C)c1ccc(nc1)C1(Cl)CCCC1)c1cnccc1C

$$$$

  CDD

  0  0  0  0  0  0            999 V2000
M  END
> <Molecule Name>
CVD-0006690

> <SMILES>
CCc1cccc(C)c1NC(=O)[C@H](N(C(=O)C=C)c1ccc(nc1)C1(Cl)CCCC1)c1cnccc1C

$$$$

  CDD

  0  0  0  0  0  0            999 V2000
M  END
> <Molecule Name>
CVD-0006689

> <SMILES>
CCc1cccc(C)c1NC(=O)[C@H](N(C(=O)C=C)c1ccc(cn1)C1(Cl)CCCC1)c1cnccc1C

$$$$

  CDD

  0  0  0  0  0  0            999 V2000
M  END
> <Molecule Name>
CVD-0006688

> <SMILES>
CCc1cccc(C)c1NC(=O)[C@H](N(C(=O)C=C)c1ccc(cc1)C1(Cl)CCCC1)c1cnccc1C

$$$$

  CDD

  0  0  0  0  0  0            999 V2000
M  END
> <Molecule Name>
CVD-0006687

> <SMILES>
CCc1cccc(C)c1NC(=O)[C@H](N(C(=O)C=C)c1ccc(cc1)C1(CCCC1)C#N)c1cnccc1C

$$$$

  CDD

  0  0  0  0  0  0            999 V2000
M  END
> <Molecule Name>
CVD-0006686

> <SMILES>
CCc1cccc(C)c1NC(=O)[C@H](N(C(=O)C=C)c1ccc(nc1)C1(CCCC1)C#N)c1cnccc1C

$$$$

  CDD

  0  0  0  0  0  0            999 V2000
M  END
> <Molecule Name>
CVD-0006685

> <SMILES>
CCc1cccc(C)c1NC(=O)[C@H](N(C(=O)C=C)c1ccc(cn1)C1(CCCC1)C#N)c1cnccc1C

$$$$

  CDD

  0  0  0  0  0  0            999 V2000
M  END
> <Molecule Name>
CVD-0006684

> <SMILES>
CCc1cccc(C)c1NC(=O)[C@H](N(C(=O)C=C)c1ccc(CC#N)cn1)c1cnccc1C

$$$$

  CDD

  0  0  0  0  0  0            999 V2000
M  END
> <Molecule Name>
CVD-0006683

> <SMILES>
CCc1cccc(C)c1NC(=O)[C@H](N(C(=O)C=C)c1ccc(CC#N)nc1)c1cnccc1C

$$$$

  CDD

  0  0  0  0  0  0            999 V2000
M  END
> <Molecule Name>
CVD-0006682

> <SMILES>
CCc1cccc(C)c1NC(=O)[C@H](N(C(=O)C=C)c1ccc(CC#N)cc1)c1cnccc1C

$$$$

  CDD

  0  0  0  0  0  0            999 V2000
M  END
> <Molecule Name>
CVD-0006681

> <SMILES>
CCc1cccc(C)c1NC(=O)[C@H](N(C(=O)C=C)c1ccc(CCl)cc1)c1cnccc1C

$$$$

  CDD

  0  0  0  0  0  0            999 V2000
M  END
> <Molecule Name>
CVD-0006680

> <SMILES>
CCc1cccc(C)c1NC(=O)[C@H](N(C(=O)C=C)c1ccc(CCl)cn1)c1cnccc1C

$$$$

  CDD

  0  0  0  0  0  0            999 V2000
M  END
> <Molecule Name>
CVD-0006679

> <SMILES>
CCc1cccc(C)c1NC(=O)[C@H](N(C(=O)C=C)c1ccc(CCl)nc1)c1cnccc1C

$$$$

  CDD

  0  0  0  0  0  0            999 V2000
M  END
> <Molecule Name>
CVD-0006678

> <SMILES>
CNC(=O)[C@H](N(C(=O)C=C)c1ccc(CCl)nc1)c1cnccc1C

$$$$

  CDD

  0  0  0  0  0  0            999 V2000
M  END
> <Molecule Name>
CVD-0006677

> <SMILES>
CNC(=O)[C@H](N(C(=O)C=C)c1ccc(CCl)cn1)c1cnccc1C

$$$$

  CDD

  0  0  0  0  0  0            999 V2000
M  END
> <Molecule Name>
CVD-0006676

> <SMILES>
CNC(=O)[C@H](N(C(=O)C=C)c1ccc(CCl)cc1)c1cnccc1C

$$$$

  CDD

  0  0  0  0  0  0            999 V2000
M  END
> <Molecule Name>
CVD-0006675

> <SMILES>
CNC(=O)[C@H](N(C(=O)C=C)c1ccc(CC#N)cc1)c1cnccc1C

$$$$

  CDD

  0  0  0  0  0  0            999 V2000
M  END
> <Molecule Name>
CVD-0006674

> <SMILES>
CNC(=O)[C@H](N(C(=O)C=C)c1ccc(CC#N)nc1)c1cnccc1C

$$$$

  CDD

  0  0  0  0  0  0            999 V2000
M  END
> <Molecule Name>
CVD-0006673

> <SMILES>
CNC(=O)[C@H](N(C(=O)C=C)c1ccc(CC#N)cn1)c1cnccc1C

$$$$

  CDD

  0  0  0  0  0  0            999 V2000
M  END
> <Molecule Name>
CVD-0006672

> <SMILES>
FC1CCC1CC(=O)N(CCn1[nH]o1)C1CN=CC=N1

$$$$

  CDD

  0  0  0  0  0  0            999 V2000
M  END
> <Molecule Name>
CVD-0006671

> <SMILES>
CCC1=NCC(N=C1)N(CCn1[nH]o1)C(=O)CCl

$$$$

  CDD

  0  0  0  0  0  0            999 V2000
M  END
> <Molecule Name>
CVD-0006670

> <SMILES>
O=C(Cc1cccc(c1)C#N)Nc1cnccc1C1CCCNC1

$$$$

  CDD

  0  0  0  0  0  0            999 V2000
M  END
> <Molecule Name>
CVD-0006669

> <SMILES>
CC(=O)N1CCC(CC1)c1ccncc1NC(=O)Cc1cccc(c1)C#N

$$$$

  CDD

  0  0  0  0  0  0            999 V2000
M  END
> <Molecule Name>
CVD-0006668

> <SMILES>
NCc1ccncc1NC(=O)Cc1cccc(c1)C#N

$$$$

  CDD

  0  0  0  0  0  0            999 V2000
M  END
> <Molecule Name>
CVD-0006667

> <SMILES>
O=C(Cc1cncnc1)N1CCc2ccccc12

$$$$

  CDD

  0  0  0  0  0  0            999 V2000
M  END
> <Molecule Name>
CVD-0006666

> <SMILES>
O=C(Cc1cccc(c1)C#N)Nc1cnccc1CN1CCOCC1

$$$$

  CDD

  0  0  0  0  0  0            999 V2000
M  END
> <Molecule Name>
CVD-0006665

> <SMILES>
O=C(Cc1cccc(c1)C#N)Nc1cnccc1C#N

$$$$

  CDD

  0  0  0  0  0  0            999 V2000
M  END
> <Molecule Name>
CVD-0006664

> <SMILES>
O=C(Cc1cncnc1)Nc1cccnc1

$$$$

  CDD

  0  0  0  0  0  0            999 V2000
M  END
> <Molecule Name>
CVD-0006663

> <SMILES>
CS(=O)(=O)c1ccncc1NC(=O)Cc1cccc(c1)C#N

$$$$

  CDD

  0  0  0  0  0  0            999 V2000
M  END
> <Molecule Name>
CVD-0006662

> <SMILES>
O=C(Cc1cncnc1)Nc1cccc(c1)N1CCC1

$$$$

  CDD

  0  0  0  0  0  0            999 V2000
M  END
> <Molecule Name>
CVD-0006661

> <SMILES>
[O-][N+](=O)c1ccncc1NC(=O)Cc1cccc(c1)C#N

$$$$

  CDD

  0  0  0  0  0  0            999 V2000
M  END
> <Molecule Name>
CVD-0006660

> <SMILES>
Fc1ccc(CC(=O)Nc2cccnc2)cc1

$$$$

  CDD

  0  0  0  0  0  0            999 V2000
M  END
> <Molecule Name>
CVD-0006659

> <SMILES>
Clc1ccc(CC(=O)Nc2cccnc2)cc1

$$$$

  CDD

  0  0  0  0  0  0            999 V2000
M  END
> <Molecule Name>
CVD-0006658

> <SMILES>
Clc1ncccc1NC(=O)Cc1ccccc1

$$$$

  CDD

  0  0  0  0  0  0            999 V2000
M  END
> <Molecule Name>
CVD-0006657

> <SMILES>
OC(=O)c1ccccc1CC(=O)Nc1cccnc1

$$$$

  CDD

  0  0  0  0  0  0            999 V2000
M  END
> <Molecule Name>
CVD-0006656

> <SMILES>
Clc1ccccc1CC(=O)Nc1cccnc1

$$$$

  CDD

  0  0  0  0  0  0            999 V2000
M  END
> <Molecule Name>
CVD-0006655

> <SMILES>
NC(NC(=O)Cc1cncnc1)C1CC1

$$$$

  CDD

  0  0  0  0  0  0            999 V2000
M  END
> <Molecule Name>
CVD-0006654

> <SMILES>
O=C(Cc1cncnc1)NC1CCNCC1

$$$$

  CDD

  0  0  0  0  0  0            999 V2000
M  END
> <Molecule Name>
CVD-0006653

> <SMILES>
O=C(Cc1cncnc1)NC(=O)C1CC1

$$$$

  CDD

  0  0  0  0  0  0            999 V2000
M  END
> <Molecule Name>
CVD-0006652

> <SMILES>
CC1COC(CO)CN1CNC(=O)Cc1cncnc1

$$$$

  CDD

  0  0  0  0  0  0            999 V2000
M  END
> <Molecule Name>
CVD-0006651

> <SMILES>
CC(O)C(NC(=O)Cc1cncnc1)N(C)C

$$$$

  CDD

  0  0  0  0  0  0            999 V2000
M  END
> <Molecule Name>
CVD-0006650

> <SMILES>
O=C(CN1CCOCC1)Cc1cncnc1

$$$$

  CDD

  0  0  0  0  0  0            999 V2000
M  END
> <Molecule Name>
CVD-0006649

> <SMILES>
CC(NC1COCC1O)NC(=O)Cc1cncnc1

$$$$

  CDD

  0  0  0  0  0  0            999 V2000
M  END
> <Molecule Name>
CVD-0006648

> <SMILES>
CC1COC(CO)CN1Cc1ccncc1NC(=O)Cc1cccc(c1)C#N

$$$$

  CDD

  0  0  0  0  0  0            999 V2000
M  END
> <Molecule Name>
CVD-0006647

> <SMILES>
CC1(CNC1)OCC(=O)Cc1cncnc1

$$$$

  CDD

  0  0  0  0  0  0            999 V2000
M  END
> <Molecule Name>
CVD-0006646

> <SMILES>
O=C(Cc1cncnc1)NC1CCCNC1

$$$$

  CDD

  0  0  0  0  0  0            999 V2000
M  END
> <Molecule Name>
CVD-0006645

> <SMILES>
O=C(Cc1cccc(c1)C#N)Nc1cnccc1CN1CCNCC1

$$$$

  CDD

  0  0  0  0  0  0            999 V2000
M  END
> <Molecule Name>
CVD-0006644

> <SMILES>
O=C(Cc1cncnc1)NCN1CCNCC1

$$$$

  CDD

  0  0  0  0  0  0            999 V2000
M  END
> <Molecule Name>
CVD-0006643

> <SMILES>
O=C(Cc1cncnc1)NCCOC1CNC1

$$$$

  CDD

  0  0  0  0  0  0            999 V2000
M  END
> <Molecule Name>
CVD-0006642

> <SMILES>
CN(C)C(NC(=O)Cc1cncnc1)C1CCC1

$$$$

  CDD

  0  0  0  0  0  0            999 V2000
M  END
> <Molecule Name>
CVD-0006641

> <SMILES>
CC(CO)(NC1CC1)C(=O)Cc1cncnc1

$$$$

  CDD

  0  0  0  0  0  0            999 V2000
M  END
> <Molecule Name>
CVD-0006640

> <SMILES>
O=C(CN1CCNCC1)Cc1cncnc1

$$$$

  CDD

  0  0  0  0  0  0            999 V2000
M  END
> <Molecule Name>
CVD-0006639

> <SMILES>
Cc1cnc2[nH]c(c(CCN(Cc3c(F)cccc3Cl)c3ccc4[nH]c(=O)oc4c3)c2c1)-n1os1

$$$$

  CDD

  0  0  0  0  0  0            999 V2000
M  END
> <Molecule Name>
CVD-0006638

> <SMILES>
NCN(C(=O)CCl)c1ccc(F)cc1

$$$$

  CDD

  0  0  0  0  0  0            999 V2000
M  END
> <Molecule Name>
CVD-0006637

> <SMILES>
CC(C1CNC(C(C1)C#N)S(N)(=O)=O)C1=CCN(C=C1)C(=O)CCl

$$$$

  CDD

  0  0  0  0  0  0            999 V2000
M  END
> <Molecule Name>
CVD-0006636

> <SMILES>
ClCC(=O)N1CCN(CC1)C(c1cccc(c1)C#N)n1ccc2ccccc12

$$$$

  CDD

  0  0  0  0  0  0            999 V2000
M  END
> <Molecule Name>
CVD-0006635

> <SMILES>
ClCC(=O)N1CCN(CC1)C(c1cccc(Cl)c1)n1ccc2ccccc12

$$$$

  CDD

  0  0  0  0  0  0            999 V2000
M  END
> <Molecule Name>
CVD-0006634

> <SMILES>
ClCC(=O)N1CC2CC1CN2C(c1cccc(Cl)c1)n1ccc2ccccc12

$$$$

  CDD

  0  0  0  0  0  0            999 V2000
M  END
> <Molecule Name>
CVD-0006633

> <SMILES>
ClCC(=O)N1CC2CC1CN2C(c1cccc(c1)C#N)n1ccc2ccccc12

$$$$

  CDD

  0  0  0  0  0  0            999 V2000
M  END
> <Molecule Name>
CVD-0006632

> <SMILES>
ClCC(=O)N1CCN(CC1)C(c1ccccc1)c1cccc(Cl)c1

$$$$

  CDD

  0  0  0  0  0  0            999 V2000
M  END
> <Molecule Name>
CVD-0006631

> <SMILES>
ClCC(=O)N1CCN(CC1)C(c1ccccc1)c1cccc(c1)C#N

$$$$

  CDD

  0  0  0  0  0  0            999 V2000
M  END
> <Molecule Name>
CVD-0006630

> <SMILES>
NS(=O)(=O)c1ccc2c(CN3CC4CC3CN4C(=O)CCl)cc(Cl)cc2c1

$$$$

  CDD

  0  0  0  0  0  0            999 V2000
M  END
> <Molecule Name>
CVD-0006629

> <SMILES>
NS(=O)(=O)c1ccc2c(CN3CC4CC3CN4C(=O)CCl)cc(cc2c1)C#N

$$$$

  CDD

  0  0  0  0  0  0            999 V2000
M  END
> <Molecule Name>
CVD-0006628

> <SMILES>
NS(=O)(=O)c1cccc2c(CN3CC4CC3CN4C(=O)CCl)cc(cc12)C#N

$$$$

  CDD

  0  0  0  0  0  0            999 V2000
M  END
> <Molecule Name>
CVD-0006627

> <SMILES>
ClCC(=O)N1CC2CC1CN2C(c1ccccc1)c1cccc(c1)C#N

$$$$

  CDD

  0  0  0  0  0  0            999 V2000
M  END
> <Molecule Name>
CVD-0006626

> <SMILES>
ClCC(=O)N1CC2CC1CN2C(c1ccccc1)c1cc(cc2ccccc12)C#N

$$$$

  CDD

  0  0  0  0  0  0            999 V2000
M  END
> <Molecule Name>
CVD-0006625

> <SMILES>
ClCC(=O)N1CC2CC1CN2C(c1ccccc1)c1cc(Cl)cc2ccccc12

$$$$

  CDD

  0  0  0  0  0  0            999 V2000
M  END
> <Molecule Name>
CVD-0006624

> <SMILES>
NS(=O)(=O)c1cccc2c(CN3CC4CC3CN4C(=O)CCl)cc(Cl)cc12

$$$$

  CDD

  0  0  0  0  0  0            999 V2000
M  END
> <Molecule Name>
CVD-0006623

> <SMILES>
ClCC(=O)N1CC2CC1CN2C(c1ccccc1)c1cccc(Cl)c1

$$$$

  CDD

  0  0  0  0  0  0            999 V2000
M  END
> <Molecule Name>
CVD-0006622

> <SMILES>
ClCC(=O)N1CC2CC1CN2Cc1cc(cc2ccccc12)C#N

$$$$

  CDD

  0  0  0  0  0  0            999 V2000
M  END
> <Molecule Name>
CVD-0006621

> <SMILES>
ClCC(=O)N1CC2CC1CN2Cc1cc(Cl)cc2ccccc12

$$$$

  CDD

  0  0  0  0  0  0            999 V2000
M  END
> <Molecule Name>
CVD-0006620

> <SMILES>
Cc1nn(C)c2n(CC(=O)Nc3cc(Cl)ccc3C)c(=O)cc(C)c12

$$$$

  CDD

  0  0  0  0  0  0            999 V2000
M  END
> <Molecule Name>
CVD-0006619

> <SMILES>
Nc1cn(CC(=O)Nc2cccc(Cl)c2)nn1

$$$$

  CDD

  0  0  0  0  0  0            999 V2000
M  END
> <Molecule Name>
CVD-0006618

> <SMILES>
Clc1cccc(c1)N1CC[C@@H](Nc2nccn3cnnc23)C1=O

$$$$

  CDD

  0  0  0  0  0  0            999 V2000
M  END
> <Molecule Name>
CVD-0006617

> <SMILES>
CN1CCCc2c(ccc(CCNC(=O)c3cc(=O)[nH]c4ccccc34)c12)S(N)(=O)=O

$$$$

  CDD

  0  0  0  0  0  0            999 V2000
M  END
> <Molecule Name>
CVD-0006616

> <SMILES>
NS(=O)(=O)c1ccc(CCNC(=O)c2cc(=O)[nH]c3ccccc23)c2CCCCc12

$$$$

  CDD

  0  0  0  0  0  0            999 V2000
M  END
> <Molecule Name>
CVD-0006615

> <SMILES>
NS(=O)(=O)c1ccc(CCNC(=O)c2cc(=O)[nH]c3ccccc23)c2ccccc12

$$$$

  CDD

  0  0  0  0  0  0            999 V2000
M  END
> <Molecule Name>
CVD-0006614

> <SMILES>
COc1cccc(NCNC(=O)c2cc(=O)[nH]c3ccccc23)c1

$$$$

  CDD

  0  0  0  0  0  0            999 V2000
M  END
> <Molecule Name>
CVD-0006613

> <SMILES>
O=C(NCCc1cccc2ccccc12)c1cc(=O)[nH]c2ccccc12

$$$$

  CDD

  0  0  0  0  0  0            999 V2000
M  END
> <Molecule Name>
CVD-0006612

> <SMILES>
COc1ccccc1OCC(CN1CCOCC1)NC(=O)c1cc(=O)[nH]c2ccccc12

$$$$

  CDD

  0  0  0  0  0  0            999 V2000
M  END
> <Molecule Name>
CVD-0006611

> <SMILES>
COc1ccccc1OCC(NC(=O)c1cc(=O)[nH]c2ccccc12)N1CCCCC1

$$$$

  CDD

  0  0  0  0  0  0            999 V2000
M  END
> <Molecule Name>
CVD-0006610

> <SMILES>
COc1ccccc1OCC(CC(C)C)NC(=O)c1cc(=O)[nH]c2ccccc12

$$$$

  CDD

  0  0  0  0  0  0            999 V2000
M  END
> <Molecule Name>
CVD-0006609

> <SMILES>
COc1ccccc1OCC(NC(=O)c1cc(=O)[nH]c2ccccc12)N1CCC1

$$$$

  CDD

  0  0  0  0  0  0            999 V2000
M  END
> <Molecule Name>
CVD-0006608

> <SMILES>
COc1ccccc1OCC(NC(=O)c1cc(=O)[nH]c2ccccc12)C1CC1

$$$$

  CDD

  0  0  0  0  0  0            999 V2000
M  END
> <Molecule Name>
CVD-0006607

> <SMILES>
COc1ccccc1OCCNC(=O)c1cc(O)cc2ccccc12

$$$$

  CDD

  0  0  0  0  0  0            999 V2000
M  END
> <Molecule Name>
CVD-0006606

> <SMILES>
COc1ccccc1OCCNC(=O)c1cc(N)cc2ccccc12

$$$$

  CDD

  0  0  0  0  0  0            999 V2000
M  END
> <Molecule Name>
CVD-0006605

> <SMILES>
COc1ccccc1OCCNC(=O)c1cc(N)nc2ccccc12

$$$$

  CDD

  0  0  0  0  0  0            999 V2000
M  END
> <Molecule Name>
CVD-0006604

> <SMILES>
Cc1ccncc1NC(=O)Cc1cccc(c1)C(C)(F)F

$$$$

  CDD

  0  0  0  0  0  0            999 V2000
M  END
> <Molecule Name>
CVD-0006603

> <SMILES>
C[S+]([O-])c1cccc(CC(=O)Nc2cnccc2C)c1

$$$$

  CDD

  0  0  0  0  0  0            999 V2000
M  END
> <Molecule Name>
CVD-0006602

> <SMILES>
CCC(F)(F)c1cccc(CC(=O)Nc2cnccc2C)c1

$$$$

  CDD

  0  0  0  0  0  0            999 V2000
M  END
> <Molecule Name>
CVD-0006601

> <SMILES>
CC(C(=O)Nc1cnccc1C)c1cnn(c1)C1(CC1)C#N

$$$$

  CDD

  0  0  0  0  0  0            999 V2000
M  END
> <Molecule Name>
CVD-0006600

> <SMILES>
Cc1ccncc1NC(=O)Cc1cnn(c1)C1(CC1)C#N

$$$$

  CDD

  0  0  0  0  0  0            999 V2000
M  END
> <Molecule Name>
CVD-0006599

> <SMILES>
CC(C(=O)Nc1cnccc1C)c1cnn(c1)C1(I)CC1

$$$$

  CDD

  0  0  0  0  0  0            999 V2000
M  END
> <Molecule Name>
CVD-0006598

> <SMILES>
CC(C(=O)Nc1cnccc1C)c1cnn(c1)C1(F)CC1

$$$$

  CDD

  0  0  0  0  0  0            999 V2000
M  END
> <Molecule Name>
CVD-0006597

> <SMILES>
CC(C(=O)Nc1cnccc1C)c1cnn(c1)C1(Cl)CC1

$$$$

  CDD

  0  0  0  0  0  0            999 V2000
M  END
> <Molecule Name>
CVD-0006596

> <SMILES>
CC(C(=O)Nc1cnccc1C)c1cnn(c1)C1(C)CC1

$$$$

  CDD

  0  0  0  0  0  0            999 V2000
M  END
> <Molecule Name>
CVD-0006595

> <SMILES>
Cc1ccncc1NC(=O)Nc1cnn(c1)C1(CC1)C#N

$$$$

  CDD

  0  0  0  0  0  0            999 V2000
M  END
> <Molecule Name>
CVD-0006594

> <SMILES>
Cc1ccncc1NC(=O)Nc1cnn(c1)C1(I)CC1

$$$$

  CDD

  0  0  0  0  0  0            999 V2000
M  END
> <Molecule Name>
CVD-0006593

> <SMILES>
Cc1ccncc1NC(=O)Nc1cnn(c1)C1(F)CC1

$$$$

  CDD

  0  0  0  0  0  0            999 V2000
M  END
> <Molecule Name>
CVD-0006592

> <SMILES>
Cc1ccncc1NC(=O)Nc1cnn(c1)C1(Cl)CC1

$$$$

  CDD

  0  0  0  0  0  0            999 V2000
M  END
> <Molecule Name>
CVD-0006591

> <SMILES>
Cc1ccncc1NC(=O)Nc1cnn(c1)C1(C)CC1

$$$$

  CDD

  0  0  0  0  0  0            999 V2000
M  END
> <Molecule Name>
CVD-0006590

> <SMILES>
Cc1ccncc1NC(=O)Cc1cnn(c1)C1(I)CC1

$$$$

  CDD

  0  0  0  0  0  0            999 V2000
M  END
> <Molecule Name>
CVD-0006589

> <SMILES>
Cc1ccncc1NC(=O)Cc1cnn(c1)C1(F)CC1

$$$$

  CDD

  0  0  0  0  0  0            999 V2000
M  END
> <Molecule Name>
CVD-0006588

> <SMILES>
Cc1ccncc1NC(=O)Cc1cnn(c1)C1(Cl)CC1

$$$$

  CDD

  0  0  0  0  0  0            999 V2000
M  END
> <Molecule Name>
CVD-0006587

> <SMILES>
Cc1ccncc1NC(=O)Cc1cnn(c1)C1(C)CC1

$$$$

  CDD

  0  0  0  0  0  0            999 V2000
M  END
> <Molecule Name>
CVD-0006586

> <SMILES>
CC(C(=O)Nc1cncc2ccccc12)c1cccc(c1)C1(CC1)C#N

$$$$

  CDD

  0  0  0  0  0  0            999 V2000
M  END
> <Molecule Name>
CVD-0006585

> <SMILES>
O=C(Cc1cccc(c1)C1(CC1)C#N)Nc1cncc2ccccc12

$$$$

  CDD

  0  0  0  0  0  0            999 V2000
M  END
> <Molecule Name>
CVD-0006584

> <SMILES>
CC(C(=O)Nc1cncc2ccccc12)c1cccc(c1)C1(I)CC1

$$$$

  CDD

  0  0  0  0  0  0            999 V2000
M  END
> <Molecule Name>
CVD-0006583

> <SMILES>
CC(C(=O)Nc1cncc2ccccc12)c1cccc(c1)C1(F)CC1

$$$$

  CDD

  0  0  0  0  0  0            999 V2000
M  END
> <Molecule Name>
CVD-0006582

> <SMILES>
CC(C(=O)Nc1cncc2ccccc12)c1cccc(c1)C1(Cl)CC1

$$$$

  CDD

  0  0  0  0  0  0            999 V2000
M  END
> <Molecule Name>
CVD-0006581

> <SMILES>
CC(C(=O)Nc1cncc2ccccc12)c1cccc(c1)C1(C)CC1

$$$$

  CDD

  0  0  0  0  0  0            999 V2000
M  END
> <Molecule Name>
CVD-0006580

> <SMILES>
O=C(Nc1cccc(c1)C1(CC1)C#N)Nc1cncc2ccccc12

$$$$

  CDD

  0  0  0  0  0  0            999 V2000
M  END
> <Molecule Name>
CVD-0006579

> <SMILES>
IC1(CC1)c1cccc(NC(=O)Nc2cncc3ccccc23)c1

$$$$

  CDD

  0  0  0  0  0  0            999 V2000
M  END
> <Molecule Name>
CVD-0006578

> <SMILES>
FC1(CC1)c1cccc(NC(=O)Nc2cncc3ccccc23)c1

$$$$

  CDD

  0  0  0  0  0  0            999 V2000
M  END
> <Molecule Name>
CVD-0006577

> <SMILES>
ClC1(CC1)c1cccc(NC(=O)Nc2cncc3ccccc23)c1

$$$$

  CDD

  0  0  0  0  0  0            999 V2000
M  END
> <Molecule Name>
CVD-0006576

> <SMILES>
CC1(CC1)c1cccc(NC(=O)Nc2cncc3ccccc23)c1

$$$$

  CDD

  0  0  0  0  0  0            999 V2000
M  END
> <Molecule Name>
CVD-0006575

> <SMILES>
IC1(CC1)c1cccc(CC(=O)Nc2cncc3ccccc23)c1

$$$$

  CDD

  0  0  0  0  0  0            999 V2000
M  END
> <Molecule Name>
CVD-0006574

> <SMILES>
FC1(CC1)c1cccc(CC(=O)Nc2cncc3ccccc23)c1

$$$$

  CDD

  0  0  0  0  0  0            999 V2000
M  END
> <Molecule Name>
CVD-0006573

> <SMILES>
ClC1(CC1)c1cccc(CC(=O)Nc2cncc3ccccc23)c1

$$$$

  CDD

  0  0  0  0  0  0            999 V2000
M  END
> <Molecule Name>
CVD-0006572

> <SMILES>
CC1(CC1)c1cccc(CC(=O)Nc2cncc3ccccc23)c1

$$$$

  CDD

  0  0  0  0  0  0            999 V2000
M  END
> <Molecule Name>
CVD-0006571

> <SMILES>
O=C(Cc1cccc(c1)C1(CC1)C#N)Nc1cncc2CCCCc12

$$$$

  CDD

  0  0  0  0  0  0            999 V2000
M  END
> <Molecule Name>
CVD-0006570

> <SMILES>
CC(C(=O)Nc1cncc2CCCCc12)c1cccc(c1)C1(I)CC1

$$$$

  CDD

  0  0  0  0  0  0            999 V2000
M  END
> <Molecule Name>
CVD-0006569

> <SMILES>
CC(C(=O)Nc1cncc2CCCCc12)c1cccc(c1)C1(CC1)C#N

$$$$

  CDD

  0  0  0  0  0  0            999 V2000
M  END
> <Molecule Name>
CVD-0006568

> <SMILES>
CC(C(=O)Nc1cncc2CCCCc12)c1cccc(c1)C1(F)CC1

$$$$

  CDD

  0  0  0  0  0  0            999 V2000
M  END
> <Molecule Name>
CVD-0006567

> <SMILES>
CC(C(=O)Nc1cncc2CCCCc12)c1cccc(c1)C1(Cl)CC1

$$$$

  CDD

  0  0  0  0  0  0            999 V2000
M  END
> <Molecule Name>
CVD-0006566

> <SMILES>
CC(C(=O)Nc1cncc2CCCCc12)c1cccc(c1)C1(C)CC1

$$$$

  CDD

  0  0  0  0  0  0            999 V2000
M  END
> <Molecule Name>
CVD-0006565

> <SMILES>
O=C(Nc1cccc(c1)C1(CC1)C#N)Nc1cncc2CCCCc12

$$$$

  CDD

  0  0  0  0  0  0            999 V2000
M  END
> <Molecule Name>
CVD-0006564

> <SMILES>
IC1(CC1)c1cccc(NC(=O)Nc2cncc3CCCCc23)c1

$$$$

  CDD

  0  0  0  0  0  0            999 V2000
M  END
> <Molecule Name>
CVD-0006563

> <SMILES>
FC1(CC1)c1cccc(NC(=O)Nc2cncc3CCCCc23)c1

$$$$

  CDD

  0  0  0  0  0  0            999 V2000
M  END
> <Molecule Name>
CVD-0006562

> <SMILES>
ClC1(CC1)c1cccc(NC(=O)Nc2cncc3CCCCc23)c1

$$$$

  CDD

  0  0  0  0  0  0            999 V2000
M  END
> <Molecule Name>
CVD-0006561

> <SMILES>
CC1(CC1)c1cccc(NC(=O)Nc2cncc3CCCCc23)c1

$$$$

  CDD

  0  0  0  0  0  0            999 V2000
M  END
> <Molecule Name>
CVD-0006560

> <SMILES>
IC1(CC1)c1cccc(CC(=O)Nc2cncc3CCCCc23)c1

$$$$

  CDD

  0  0  0  0  0  0            999 V2000
M  END
> <Molecule Name>
CVD-0006559

> <SMILES>
FC1(CC1)c1cccc(CC(=O)Nc2cncc3CCCCc23)c1

$$$$

  CDD

  0  0  0  0  0  0            999 V2000
M  END
> <Molecule Name>
CVD-0006558

> <SMILES>
ClC1(CC1)c1cccc(CC(=O)Nc2cncc3CCCCc23)c1

$$$$

  CDD

  0  0  0  0  0  0            999 V2000
M  END
> <Molecule Name>
CVD-0006557

> <SMILES>
CC1(CC1)c1cccc(CC(=O)Nc2cncc3CCCCc23)c1

$$$$

  CDD

  0  0  0  0  0  0            999 V2000
M  END
> <Molecule Name>
CVD-0006556

> <SMILES>
CC(C(=O)Nc1cnccc1C)c1cc(cc(c1)C1(CC1)C#N)N1CCCCC1

$$$$

  CDD

  0  0  0  0  0  0            999 V2000
M  END
> <Molecule Name>
CVD-0006555

> <SMILES>
Cc1ccncc1NC(=O)Cc1cc(cc(c1)C1(CC1)C#N)N1CCCCC1

$$$$

  CDD

  0  0  0  0  0  0            999 V2000
M  END
> <Molecule Name>
CVD-0006554

> <SMILES>
CC(C(=O)Nc1cnccc1C)c1cc(cc(c1)C1(I)CC1)N1CCCCC1

$$$$

  CDD

  0  0  0  0  0  0            999 V2000
M  END
> <Molecule Name>
CVD-0006553

> <SMILES>
CC(C(=O)Nc1cnccc1C)c1cc(cc(c1)C1(F)CC1)N1CCCCC1

$$$$

  CDD

  0  0  0  0  0  0            999 V2000
M  END
> <Molecule Name>
CVD-0006552

> <SMILES>
CC(C(=O)Nc1cnccc1C)c1cc(cc(c1)C1(Cl)CC1)N1CCCCC1

$$$$

  CDD

  0  0  0  0  0  0            999 V2000
M  END
> <Molecule Name>
CVD-0006551

> <SMILES>
CC(C(=O)Nc1cnccc1C)c1cc(cc(c1)C1(C)CC1)N1CCCCC1

$$$$

  CDD

  0  0  0  0  0  0            999 V2000
M  END
> <Molecule Name>
CVD-0006550

> <SMILES>
Cc1ccncc1NC(=O)Nc1cc(cc(c1)C1(CC1)C#N)N1CCCCC1

$$$$

  CDD

  0  0  0  0  0  0            999 V2000
M  END
> <Molecule Name>
CVD-0006549

> <SMILES>
Cc1ccncc1NC(=O)Nc1cc(cc(c1)C1(I)CC1)N1CCCCC1

$$$$

  CDD

  0  0  0  0  0  0            999 V2000
M  END
> <Molecule Name>
CVD-0006548

> <SMILES>
Cc1ccncc1NC(=O)Nc1cc(cc(c1)C1(F)CC1)N1CCCCC1

$$$$

  CDD

  0  0  0  0  0  0            999 V2000
M  END
> <Molecule Name>
CVD-0006547

> <SMILES>
Cc1ccncc1NC(=O)Nc1cc(cc(c1)C1(Cl)CC1)N1CCCCC1

$$$$

  CDD

  0  0  0  0  0  0            999 V2000
M  END
> <Molecule Name>
CVD-0006546

> <SMILES>
Cc1ccncc1NC(=O)Nc1cc(cc(c1)C1(C)CC1)N1CCCCC1

$$$$

  CDD

  0  0  0  0  0  0            999 V2000
M  END
> <Molecule Name>
CVD-0006545

> <SMILES>
Cc1ccncc1NC(=O)Cc1cc(cc(c1)C1(I)CC1)N1CCCCC1

$$$$

  CDD

  0  0  0  0  0  0            999 V2000
M  END
> <Molecule Name>
CVD-0006544

> <SMILES>
Cc1ccncc1NC(=O)Cc1cc(cc(c1)C1(F)CC1)N1CCCCC1

$$$$

  CDD

  0  0  0  0  0  0            999 V2000
M  END
> <Molecule Name>
CVD-0006543

> <SMILES>
Cc1ccncc1NC(=O)Cc1cc(cc(c1)C1(Cl)CC1)N1CCCCC1

$$$$

  CDD

  0  0  0  0  0  0            999 V2000
M  END
> <Molecule Name>
CVD-0006542

> <SMILES>
Cc1ccncc1NC(=O)Cc1cc(cc(c1)C1(C)CC1)N1CCCCC1

$$$$

  CDD

  0  0  0  0  0  0            999 V2000
M  END
> <Molecule Name>
CVD-0006541

> <SMILES>
CC(C(=O)Nc1cnccc1C)c1cccc(c1)C1(CC1)C#N

$$$$

  CDD

  0  0  0  0  0  0            999 V2000
M  END
> <Molecule Name>
CVD-0006540

> <SMILES>
Cc1ccncc1NC(=O)Cc1cccc(c1)C1(CC1)C#N

$$$$

  CDD

  0  0  0  0  0  0            999 V2000
M  END
> <Molecule Name>
CVD-0006539

> <SMILES>
CC(C(=O)Nc1cnccc1C)c1cccc(c1)C1(I)CC1

$$$$

  CDD

  0  0  0  0  0  0            999 V2000
M  END
> <Molecule Name>
CVD-0006538

> <SMILES>
CC(C(=O)Nc1cnccc1C)c1cccc(c1)C1(F)CC1

$$$$

  CDD

  0  0  0  0  0  0            999 V2000
M  END
> <Molecule Name>
CVD-0006537

> <SMILES>
CC(C(=O)Nc1cnccc1C)c1cccc(c1)C1(Cl)CC1

$$$$

  CDD

  0  0  0  0  0  0            999 V2000
M  END
> <Molecule Name>
CVD-0006536

> <SMILES>
CC(C(=O)Nc1cnccc1C)c1cccc(c1)C1(C)CC1

$$$$

  CDD

  0  0  0  0  0  0            999 V2000
M  END
> <Molecule Name>
CVD-0006535

> <SMILES>
Cc1ccncc1NC(=O)Nc1cccc(c1)C1(CC1)C#N

$$$$

  CDD

  0  0  0  0  0  0            999 V2000
M  END
> <Molecule Name>
CVD-0006534

> <SMILES>
Cc1ccncc1NC(=O)Nc1cccc(c1)C1(I)CC1

$$$$

  CDD

  0  0  0  0  0  0            999 V2000
M  END
> <Molecule Name>
CVD-0006533

> <SMILES>
Cc1ccncc1NC(=O)Nc1cccc(c1)C1(F)CC1

$$$$

  CDD

  0  0  0  0  0  0            999 V2000
M  END
> <Molecule Name>
CVD-0006532

> <SMILES>
Cc1ccncc1NC(=O)Nc1cccc(c1)C1(Cl)CC1

$$$$

  CDD

  0  0  0  0  0  0            999 V2000
M  END
> <Molecule Name>
CVD-0006531

> <SMILES>
Cc1ccncc1NC(=O)Nc1cccc(c1)C1(C)CC1

$$$$

  CDD

  0  0  0  0  0  0            999 V2000
M  END
> <Molecule Name>
CVD-0006530

> <SMILES>
Cc1ccncc1NC(=O)Cc1cccc(c1)C1(I)CC1

$$$$

  CDD

  0  0  0  0  0  0            999 V2000
M  END
> <Molecule Name>
CVD-0006529

> <SMILES>
Cc1ccncc1NC(=O)Cc1cccc(c1)C1(Cl)CC1

$$$$

  CDD

  0  0  0  0  0  0            999 V2000
M  END
> <Molecule Name>
CVD-0006528

> <SMILES>
Cc1ccncc1NC(=O)Cc1cccc(c1)C1(F)CC1

$$$$

  CDD

  0  0  0  0  0  0            999 V2000
M  END
> <Molecule Name>
CVD-0006527

> <SMILES>
Cc1ccncc1NC(=O)Cc1cccc(c1)C1(C)CC1

$$$$

  CDD

  0  0  0  0  0  0            999 V2000
M  END
> <Molecule Name>
CVD-0006526

> <SMILES>
Cc1cc2OC[C@@H](C(=O)N3CCCC[C@@H]3c3cn[nH]c3)c2cc1C

$$$$

  CDD

  0  0  0  0  0  0            999 V2000
M  END
> <Molecule Name>
CVD-0006525

> <SMILES>
CC(=O)N(CC(=O)Nc1ccc(F)c(Cl)c1)c1cccc(c1)C(F)(F)F

$$$$

  CDD

  0  0  0  0  0  0            999 V2000
M  END
> <Molecule Name>
CVD-0006524

> <SMILES>
CC(=O)N(CC(=O)Nc1ccc(F)c(Cl)c1)c1cccc(c1)C#N

$$$$

  CDD

  0  0  0  0  0  0            999 V2000
M  END
> <Molecule Name>
CVD-0006523

> <SMILES>
CC(=O)N(CC(=O)Nc1ccc(F)c(Cl)c1)c1cccc(Cl)c1

$$$$

  CDD

  0  0  0  0  0  0            999 V2000
M  END
> <Molecule Name>
CVD-0006522

> <SMILES>
Cc1ccc(NC2=C(C(=O)N(Cc3cccnc3)C2=O)c2ccccc2)cc1Cl

$$$$

  CDD

  0  0  0  0  0  0            999 V2000
M  END
> <Molecule Name>
CVD-0006521

> <SMILES>
Cc1ccc(NC2=C(C(=O)N(Cc3cccnc3)C2=O)c2ccccc2)c(C)c1

$$$$

  CDD

  0  0  0  0  0  0            999 V2000
M  END
> <Molecule Name>
CVD-0006520

> <SMILES>
Cc1ccc(NC2=C(C(=O)N(Cc3cccnc3)C2=O)c2ccccc2)cc1C

$$$$

  CDD

  0  0  0  0  0  0            999 V2000
M  END
> <Molecule Name>
CVD-0006519

> <SMILES>
Clc1cccc(NC(=O)[C@@H]2CCC(=O)NC2)c1

$$$$

  CDD

  0  0  0  0  0  0            999 V2000
M  END
> <Molecule Name>
CVD-0006518

> <SMILES>
Cc1ccc(C)c(NC(=O)[C@H]2CNC(=O)C2)c1

$$$$

  CDD

  0  0  0  0  0  0            999 V2000
M  END
> <Molecule Name>
CVD-0006517

> <SMILES>
Cc1cccc(CS(=O)(=O)N2CCC(CC2)C(N)=O)c1

$$$$

  CDD

  0  0  0  0  0  0            999 V2000
M  END
> <Molecule Name>
CVD-0006516

> <SMILES>
Cn1cnnc1CNC(=O)Nc1cc(c[nH]c1=O)C(F)(F)F

$$$$

  CDD

  0  0  0  0  0  0            999 V2000
M  END
> <Molecule Name>
CVD-0006515

> <SMILES>
CCS(=O)(=O)N1CCC(CC1)C(=O)Nc1cc(Cl)ccc1O

$$$$

  CDD

  0  0  0  0  0  0            999 V2000
M  END
> <Molecule Name>
CVD-0006514

> <SMILES>
Nc1ncc(cn1)S(=O)(=O)NCc1cccc(Cl)c1

$$$$

  CDD

  0  0  0  0  0  0            999 V2000
M  END
> <Molecule Name>
CVD-0006513

> <SMILES>
Cc1ccc(cc1C)-n1ncc2c1ncn(CC(N)=O)c2=O

$$$$

  CDD

  0  0  0  0  0  0            999 V2000
M  END
> <Molecule Name>
CVD-0006512

> <SMILES>
Cc1cccc(NC(=O)Cn2c3ccccc3oc2=O)c1

$$$$

  CDD

  0  0  0  0  0  0            999 V2000
M  END
> <Molecule Name>
CVD-0006511

> <SMILES>
Brc1cccc(NC(=O)[C@H]2CCC(=O)N2)c1

$$$$

  CDD

  0  0  0  0  0  0            999 V2000
M  END
> <Molecule Name>
CVD-0006510

> <SMILES>
NC(=O)Cn1cnc2n(nnc2c1=O)-c1cccc(Cl)c1

$$$$

  CDD

  0  0  0  0  0  0            999 V2000
M  END
> <Molecule Name>
CVD-0006509

> <SMILES>
COc1ccccc1CC(=O)N1CCCN(CC1)S(F)(=O)=O

$$$$

  CDD

  0  0  0  0  0  0            999 V2000
M  END
> <Molecule Name>
CVD-0006508

> <SMILES>
Cc1ccc(cc1)S(=O)(=O)N1CCN(CC1)C(=O)n1ccnc1

$$$$

  CDD

  0  0  0  0  0  0            999 V2000
M  END
> <Molecule Name>
CVD-0006507

> <SMILES>
FS(=O)(=O)N1CCN(CC1)C(=O)Nc1ccccc1

$$$$

  CDD

  0  0  0  0  0  0            999 V2000
M  END
> <Molecule Name>
CVD-0006506

> <SMILES>
FS(=O)(=O)N1CCN(CC1)C(=O)Nc1cccnc1

$$$$

  CDD

  0  0  0  0  0  0            999 V2000
M  END
> <Molecule Name>
CVD-0006505

> <SMILES>
FS(=O)(=O)c1ccc(cc1)S(=O)(=O)N1CCCCC1

$$$$

  CDD

  0  0  0  0  0  0            999 V2000
M  END
> <Molecule Name>
CVD-0006504

> <SMILES>
FS(=O)(=O)c1ccccc1S(=O)(=O)N1CCCC1

$$$$

  CDD

  0  0  0  0  0  0            999 V2000
M  END
> <Molecule Name>
CVD-0006503

> <SMILES>
FS(=O)(=O)N1CCN(CC1)C(=O)c1ccsc1

$$$$

  CDD

  0  0  0  0  0  0            999 V2000
M  END
> <Molecule Name>
CVD-0006502

> <SMILES>
Cc1ccc(cc1S(F)(=O)=O)S(=O)(=O)N1CCCCC1

$$$$

  CDD

  0  0  0  0  0  0            999 V2000
M  END
> <Molecule Name>
CVD-0006501

> <SMILES>
FS(=O)(=O)N1CCN(CC1)C(=O)NCc1ccccc1

$$$$

  CDD

  0  0  0  0  0  0            999 V2000
M  END
> <Molecule Name>
CVD-0006500

> <SMILES>
FS(=O)(=O)N1CCN(CC1)C(=O)Cc1cccs1

$$$$

  CDD

  0  0  0  0  0  0            999 V2000
M  END
> <Molecule Name>
CVD-0006499

> <SMILES>
CNC1C=C(C=CN1C(=O)CCl)C(C1CCPC1)C1CNC(C(C1)C#N)S(N)(=O)=O

$$$$

  CDD

  0  0  0  0  0  0            999 V2000
M  END
> <Molecule Name>
CVD-0006498

> <SMILES>
CN(C(=O)CCl)c1cncnc1C(C#N)C1C(F)C1F

$$$$

  CDD

  0  0  0  0  0  0            999 V2000
M  END
> <Molecule Name>
CVD-0006497

> <SMILES>
FC1CC1C(C#N)c1ncncc1NC(=O)CCl

$$$$

  CDD

  0  0  0  0  0  0            999 V2000
M  END
> <Molecule Name>
CVD-0006496

> <SMILES>
ClCC(=O)Nc1cnc(nc1CC#N)C1CO1

$$$$

  CDD

  0  0  0  0  0  0            999 V2000
M  END
> <Molecule Name>
CVD-0006495

> <SMILES>
ClCC(=O)Nc1sc2CCCCc2c1C#N

$$$$

  CDD

  0  0  0  0  0  0            999 V2000
M  END
> <Molecule Name>
CVD-0006494

> <SMILES>
Fc1cccc(CN2CCN(CC2)C(=O)C=C)c1

$$$$

  CDD

  0  0  0  0  0  0            999 V2000
M  END
> <Molecule Name>
CVD-0006493

> <SMILES>
C=CC(=O)N1CC(Cc2ccsc2)C1

$$$$

  CDD

  0  0  0  0  0  0            999 V2000
M  END
> <Molecule Name>
CVD-0006492

> <SMILES>
CC1CN(CCO1)c1cc(CNC(=O)C=C)ccn1

$$$$

  CDD

  0  0  0  0  0  0            999 V2000
M  END
> <Molecule Name>
CVD-0006491

> <SMILES>
CCS(=O)(=O)N1CCN(CC1)C(=O)C=C

$$$$

  CDD

  0  0  0  0  0  0            999 V2000
M  END
> <Molecule Name>
CVD-0006490

> <SMILES>
C=CC(=O)N1CCN(Cc2cncs2)CC1

$$$$

  CDD

  0  0  0  0  0  0            999 V2000
M  END
> <Molecule Name>
CVD-0006489

> <SMILES>
Cn1cc(cc1C(N)=O)S(=O)(=O)N1CCN(CC1)C(=O)C=C

$$$$

  CDD

  0  0  0  0  0  0            999 V2000
M  END
> <Molecule Name>
CVD-0006488

> <SMILES>
C=CC(=O)N1CCC(CC1)c1nc2ccccc2s1

$$$$

  CDD

  0  0  0  0  0  0            999 V2000
M  END
> <Molecule Name>
CVD-0006487

> <SMILES>
Cc1cccc(c1)N1CCN(CC1)C(=O)C=C

$$$$

  CDD

  0  0  0  0  0  0            999 V2000
M  END
> <Molecule Name>
CVD-0006486

> <SMILES>
Fc1ccc(CN2CCC(CC2)NC(=O)C=C)cc1

$$$$

  CDD

  0  0  0  0  0  0            999 V2000
M  END
> <Molecule Name>
CVD-0006485

> <SMILES>
C=CC(=O)N1CCCCC1c1nc2ccccc2s1

$$$$

  CDD

  0  0  0  0  0  0            999 V2000
M  END
> <Molecule Name>
CVD-0006484

> <SMILES>
CC(C1CNC(C(C1)C#N)S(C)(=O)=O)C1=CCN(C=C1)C(=O)CCl

$$$$

  CDD

  0  0  0  0  0  0            999 V2000
M  END
> <Molecule Name>
CVD-0006483

> <SMILES>
C=CC(=O)NCc1ccc(o1)-c1nc2ccccc2s1

$$$$

  CDD

  0  0  0  0  0  0            999 V2000
M  END
> <Molecule Name>
CVD-0006482

> <SMILES>
COCCOc1cnc(NS(=O)(=O)c2ccccc2)nc1

$$$$

  CDD

  0  0  0  0  0  0            999 V2000
M  END
> <Molecule Name>
CVD-0006481

> <SMILES>
CCCCOc1nc(N)c2NC(=O)CN(Cc3cccc(CN4CCCC4)c3)c2n1

$$$$

  CDD

  0  0  0  0  0  0            999 V2000
M  END
> <Molecule Name>
CVD-0006480

> <SMILES>
ONC(=O)c1cnc(nc1)N1CC2C(C1)C2NCc1ccc2cc(F)ccc2n1

$$$$

  CDD

  0  0  0  0  0  0            999 V2000
M  END
> <Molecule Name>
CVD-0006479

> <SMILES>
COc1cncnc1N1CCN(CCCc2c[nH]c3ccc(F)cc23)CC1

$$$$

  CDD

  0  0  0  0  0  0            999 V2000
M  END
> <Molecule Name>
CVD-0006478

> <SMILES>
COc1ccc(Cc2cnc(N)nc2N)cc1OC

$$$$

  CDD

  0  0  0  0  0  0            999 V2000
M  END
> <Molecule Name>
CVD-0006477

> <SMILES>
CC(O)C(O)C1CNc2nc(N)nc(N)c2N1

$$$$

  CDD

  0  0  0  0  0  0            999 V2000
M  END
> <Molecule Name>
CVD-0006476

> <SMILES>
CC(=O)Nn1cnc(=O)c(c1)C#N

$$$$

  CDD

  0  0  0  0  0  0            999 V2000
M  END
> <Molecule Name>
CVD-0006475

> <SMILES>
CNS(=O)(=O)Cc1ccc2[nH]cc(CCCN3CCN(CC3)c3ncncc3OC)c2c1

$$$$

  CDD

  0  0  0  0  0  0            999 V2000
M  END
> <Molecule Name>
CVD-0006474

> <SMILES>
COc1cc(Cc2cnc(N)nc2N)cc(OC)c1N(C)C

$$$$

  CDD

  0  0  0  0  0  0            999 V2000
M  END
> <Molecule Name>
CVD-0006473

> <SMILES>
C\C(N(Cc1cnc(C)nc1N)C=O)=C1/CCOC(=O)S1

$$$$

  CDD

  0  0  0  0  0  0            999 V2000
M  END
> <Molecule Name>
CVD-0006472

> <SMILES>
Nc1nc(ncc1C1CC1)-c1nn(Cc2ccccc2F)c2ncccc12

$$$$

  CDD

  0  0  0  0  0  0            999 V2000
M  END
> <Molecule Name>
CVD-0006471

> <SMILES>
COc1cnc(NS(=O)(=O)c2ccc(N)cc2)nc1

$$$$

  CDD

  0  0  0  0  0  0            999 V2000
M  END
> <Molecule Name>
CVD-0006470

> <SMILES>
CS(=O)(=O)N1CCN(Cc2cn3cc(nc(N4CCOCC4)c3n2)-c2cnc(N)nc2)CC1

$$$$

  CDD

  0  0  0  0  0  0            999 V2000
M  END
> <Molecule Name>
CVD-0006469

> <SMILES>
CCNC(=O)Nc1ccc(cc1OC)-c1ncc(C)c(NC(C)c2cccnc2)n1

$$$$

  CDD

  0  0  0  0  0  0            999 V2000
M  END
> <Molecule Name>
CVD-0006468

> <SMILES>
COc1ncnc(NS(=O)(=O)c2ccc(N)cc2)c1OC

$$$$

  CDD

  0  0  0  0  0  0            999 V2000
M  END
> <Molecule Name>
CVD-0006467

> <SMILES>
CC(O)C(O)C1CNc2nc(N)[nH]c(=O)c2N1

$$$$

  CDD

  0  0  0  0  0  0            999 V2000
M  END
> <Molecule Name>
CVD-0006466

> <SMILES>
COc1cc(Cc2cnc(nc2N)N2C(=O)c3ccccc3C2=O)cc(OC)c1OC

$$$$

  CDD

  0  0  0  0  0  0            999 V2000
M  END
> <Molecule Name>
CVD-0006465

> <SMILES>
CC(C)n1c(C)nc2c(nc(nc12)N1CCOCC1)-c1cnc(N)nc1

$$$$

  CDD

  0  0  0  0  0  0            999 V2000
M  END
> <Molecule Name>
CVD-0006464

> <SMILES>
OCC1OC(NC(=S)Nc2c[nH]c(=O)[nH]c2=O)C(O)C(O)C1O

$$$$

  CDD

  0  0  0  0  0  0            999 V2000
M  END
> <Molecule Name>
CVD-0006463

> <SMILES>
COc1cc(Cc2cnc(N)nc2N)cc(OC)c1Br

$$$$

  CDD

  0  0  0  0  0  0            999 V2000
M  END
> <Molecule Name>
CVD-0006462

> <SMILES>
COc1cc(Cc2cnc(N)nc2N)c2C=CC(Oc2c1OC)C1CC1

$$$$

  CDD

  0  0  0  0  0  0            999 V2000
M  END
> <Molecule Name>
CVD-0006461

> <SMILES>
Cc1cn(C2CC(N=[N+]=N)C(CO)O2)c(=O)nc1N

$$$$

  CDD

  0  0  0  0  0  0            999 V2000
M  END
> <Molecule Name>
CVD-0006460

> <SMILES>
CCNC(=O)Nc1nc2c(C3CCCO3)c(F)c(cc2[nH]1)-c1cnc(nc1)C(C)(C)O

$$$$

  CDD

  0  0  0  0  0  0            999 V2000
M  END
> <Molecule Name>
CVD-0006459

> <SMILES>
Nc1nc(N)c(N=O)c(OCC2CCCCC2)n1

$$$$

  CDD

  0  0  0  0  0  0            999 V2000
M  END
> <Molecule Name>
CVD-0006458

> <SMILES>
Cc1cc2ncc(cn2n1)C(=O)NCC(C)(C)NCC(=O)N1CCCC1C#N

$$$$

  CDD

  0  0  0  0  0  0            999 V2000
M  END
> <Molecule Name>
CVD-0006457

> <SMILES>
OCC1OC(CC1O)n1cc(c(=O)[nH]c1=O)C(F)(F)F

$$$$

  CDD

  0  0  0  0  0  0            999 V2000
M  END
> <Molecule Name>
CVD-0006456

> <SMILES>
CS(=O)(=O)c1cccc(CNc2nc(Nc3ccc4NC(=O)CCc4c3)ncc2C(F)(F)F)c1

$$$$

  CDD

  0  0  0  0  0  0            999 V2000
M  END
> <Molecule Name>
CVD-0006455

> <SMILES>
FC(F)(F)c1nc(Nc2ccc(Cl)cc2Cl)ncc1C(=O)NCC1CCOCC1

$$$$

  CDD

  0  0  0  0  0  0            999 V2000
M  END
> <Molecule Name>
CVD-0006454

> <SMILES>
COc1ccc(COc2ccc(Cc3cnc(N)nc3N)cc2OC)cc1

$$$$

  CDD

  0  0  0  0  0  0            999 V2000
M  END
> <Molecule Name>
CVD-0006453

> <SMILES>
CN(c1ccccc1CNc1nc(Nc2ccc3NC(=O)Cc3c2)ncc1C(F)(F)F)S(C)(=O)=O

$$$$

  CDD

  0  0  0  0  0  0            999 V2000
M  END
> <Molecule Name>
CVD-0006452

> <SMILES>
NC(CN1CC(F)(F)CCC1=O)CC(=O)N1CCc2c(C1)nc(nc2C(F)(F)F)C(F)(F)F

$$$$

  CDD

  0  0  0  0  0  0            999 V2000
M  END
> <Molecule Name>
CVD-0006451

> <SMILES>
COc1cc(Cc2cnc(N)nc2N)c2cc(Cc3c([nH]c4ccc(Cl)cc34)C(=O)N(C)C)oc2c1OC

$$$$

  CDD

  0  0  0  0  0  0            999 V2000
M  END
> <Molecule Name>
CVD-0006450

> <SMILES>
ClC1=CS(=O)(=O)C=C1NC(=O)c1cc(Cl)cc(c1)C#N

$$$$

  CDD

  0  0  0  0  0  0            999 V2000
M  END
> <Molecule Name>
CVD-0006449

> <SMILES>
Clc1cc(cc(c1)C(=O)NC1CCS(=O)(=O)C1)C#N

$$$$

  CDD

  0  0  0  0  0  0            999 V2000
M  END
> <Molecule Name>
CVD-0006448

> <SMILES>
CC(NC1CCS(=O)(=O)C1)c1cc(Cl)cc(c1)C#N

$$$$

  CDD

  0  0  0  0  0  0            999 V2000
M  END
> <Molecule Name>
CVD-0006447

> <SMILES>
Cc1ncncc1NC(=O)Cc1cccc(Cl)c1

$$$$

  CDD

  0  0  0  0  0  0            999 V2000
M  END
> <Molecule Name>
CVD-0006446

> <SMILES>
Cc1ccncc1NC(=O)C(F)c1ccccc1

$$$$

  CDD

  0  0  0  0  0  0            999 V2000
M  END
> <Molecule Name>
CVD-0006445

> <SMILES>
Cc1cc2c(N)nc(=O)n(CC(=O)Nc3cccc(Cl)c3)c2s1

$$$$

  CDD

  0  0  0  0  0  0            999 V2000
M  END
> <Molecule Name>
CVD-0006444

> <SMILES>
CCC(C(O)N(C)C)C(=O)Cc1c[nH]c2ncccc12

$$$$

  CDD

  0  0  0  0  0  0            999 V2000
M  END
> <Molecule Name>
CVD-0006443

> <SMILES>
CC(CNCC1CCCO1)N1CCN(C)CC1

$$$$

  CDD

  0  0  0  0  0  0            999 V2000
M  END
> <Molecule Name>
CVD-0006442

> <SMILES>
CN1CCN(CC1)C(=O)CN1CCNCC1

$$$$

  CDD

  0  0  0  0  0  0            999 V2000
M  END
> <Molecule Name>
CVD-0006441

> <SMILES>
CN1CCN(CC1)C(=O)CCN1CCNCC1

$$$$

  CDD

  0  0  0  0  0  0            999 V2000
M  END
> <Molecule Name>
CVD-0006440

> <SMILES>
CC(CNCCCO)CC(=O)N1CCN(C)CC1

$$$$

  CDD

  0  0  0  0  0  0            999 V2000
M  END
> <Molecule Name>
CVD-0006439

> <SMILES>
CC1=CC=C(C1C(C)(C#N)C1CNCCN1)n1os1

$$$$

  CDD

  0  0  0  0  0  0            999 V2000
M  END
> <Molecule Name>
CVD-0006438

> <SMILES>
N#CCC1C=CC=C1n1os1

$$$$

  CDD

  0  0  0  0  0  0            999 V2000
M  END
> <Molecule Name>
CVD-0006437

> <SMILES>
NCCC(N1CC2CC1CN2C(=O)CCl)c1cccc(Cl)c1

$$$$

  CDD

  0  0  0  0  0  0            999 V2000
M  END
> <Molecule Name>
CVD-0006436

> <SMILES>
FC1=C(F)C(N=C1)n1cc(s1)C#N

$$$$

  CDD

  0  0  0  0  0  0            999 V2000
M  END
> <Molecule Name>
CVD-0006435

> <SMILES>
COc1cc(C)c(CN2CCN(CC2)C(=O)CCl)cc1OC

$$$$

  CDD

  0  0  0  0  0  0            999 V2000
M  END
> <Molecule Name>
CVD-0006434

> <SMILES>
ClCC(=O)N1CCN(CC1)c1cccc(Cl)c1

$$$$

  CDD

  0  0  0  0  0  0            999 V2000
M  END
> <Molecule Name>
CVD-0006433

> <SMILES>
ClCC(=O)NCc1ccccc1S(=O)(=O)N1CCOCC1

$$$$

  CDD

  0  0  0  0  0  0            999 V2000
M  END
> <Molecule Name>
CVD-0006432

> <SMILES>
ClCC(=O)NCC(=O)N1CCCC1

$$$$

  CDD

  0  0  0  0  0  0            999 V2000
M  END
> <Molecule Name>
CVD-0006431

> <SMILES>
NC(=O)C1CCCN(C1)C(=O)CCl

$$$$

  CDD

  0  0  0  0  0  0            999 V2000
M  END
> <Molecule Name>
CVD-0006430

> <SMILES>
ClCC(=O)N1CCC2(CC1)OCCO2

$$$$

  CDD

  0  0  0  0  0  0            999 V2000
M  END
> <Molecule Name>
CVD-0006429

> <SMILES>
Cc1ccc(cc1)S(=O)(=O)NC(=O)CCl

$$$$

  CDD

  0  0  0  0  0  0            999 V2000
M  END
> <Molecule Name>
CVD-0006428

> <SMILES>
ClCC(=O)NNS(=O)(=O)c1ccccc1

$$$$

  CDD

  0  0  0  0  0  0            999 V2000
M  END
> <Molecule Name>
CVD-0006427

> <SMILES>
NS(=O)(=O)c1ccc(CNC(=O)CCl)cc1

$$$$

  CDD

  0  0  0  0  0  0            999 V2000
M  END
> <Molecule Name>
CVD-0006426

> <SMILES>
ClCC(=O)N1CCN(C\C=C\c2ccccc2)CC1

$$$$

  CDD

  0  0  0  0  0  0            999 V2000
M  END
> <Molecule Name>
CVD-0006425

> <SMILES>
Clc1cccc(CC(=O)N2CCc3ccncc23)c1

$$$$

  CDD

  0  0  0  0  0  0            999 V2000
M  END
> <Molecule Name>
CVD-0006424

> <SMILES>
FC(F)(F)c1ccncc1NC(=O)Cc1cccc(Cl)c1

$$$$

  CDD

  0  0  0  0  0  0            999 V2000
M  END
> <Molecule Name>
CVD-0006423

> <SMILES>
FC(F)c1ccncc1NC(=O)Cc1cccc(Cl)c1

$$$$

  CDD

  0  0  0  0  0  0            999 V2000
M  END
> <Molecule Name>
CVD-0006422

> <SMILES>
Cc1ccncc1NC(=O)C(CN1CCC(O)CC1)c1ccccc1

$$$$

  CDD

  0  0  0  0  0  0            999 V2000
M  END
> <Molecule Name>
CVD-0006421

> <SMILES>
Cc1ccncc1NC(=O)Cc1ccccc1CN1CCC(O)CC1

$$$$

  CDD

  0  0  0  0  0  0            999 V2000
M  END
> <Molecule Name>
CVD-0006420

> <SMILES>
Cc1ccncc1NC(=O)Nc1ccccc1CN1CCC(O)CC1

$$$$

  CDD

  0  0  0  0  0  0            999 V2000
M  END
> <Molecule Name>
CVD-0006419

> <SMILES>
CC(C(=O)Nc1cnccc1Cl)c1cccc(Cl)c1

$$$$

  CDD

  0  0  0  0  0  0            999 V2000
M  END
> <Molecule Name>
CVD-0006418

> <SMILES>
CC(C(=O)Nc1cnccc1C(F)(F)F)c1cccc(Cl)c1

$$$$

  CDD

  0  0  0  0  0  0            999 V2000
M  END
> <Molecule Name>
CVD-0006417

> <SMILES>
CC(C(=O)Nc1cnccc1C(F)F)c1cccc(Cl)c1

$$$$

  CDD

  0  0  0  0  0  0            999 V2000
M  END
> <Molecule Name>
CVD-0006416

> <SMILES>
Cc1nnc(s1)N(C(=O)Nc1cnccc1C)c1cccc(Cl)c1

$$$$

  CDD

  0  0  0  0  0  0            999 V2000
M  END
> <Molecule Name>
CVD-0006415

> <SMILES>
Cc1ccncc1NC(=O)N(c1ccccc1)c1cccc(Cl)c1

$$$$

  CDD

  0  0  0  0  0  0            999 V2000
M  END
> <Molecule Name>
CVD-0006414

> <SMILES>
Cc1ccncc1NC(=O)C(c1ccccc1)c1cccc(Cl)c1

$$$$

  CDD

  0  0  0  0  0  0            999 V2000
M  END
> <Molecule Name>
CVD-0006413

> <SMILES>
O=C(On1nnc2ccccc12)c1ccc2[nH]ccc2c1

$$$$

  CDD

  0  0  0  0  0  0            999 V2000
M  END
> <Molecule Name>
CVD-0006412

> <SMILES>
Oc1ccccc1CNc1nc2ccccc2n1CN1CCNCC1

$$$$

  CDD

  0  0  0  0  0  0            999 V2000
M  END
> <Molecule Name>
CVD-0006411

> <SMILES>
Oc1ccc(CN2CCNCC2)cc1CNc1nc2ccccc2[nH]1

$$$$

  CDD

  0  0  0  0  0  0            999 V2000
M  END
> <Molecule Name>
CVD-0006410

> <SMILES>
CCN(C)CNc1nc2ccccc2[nH]1

$$$$

  CDD

  0  0  0  0  0  0            999 V2000
M  END
> <Molecule Name>
CVD-0006409

> <SMILES>
CC(O)CNCc1nc2ccccc2[nH]1

$$$$

  CDD

  0  0  0  0  0  0            999 V2000
M  END
> <Molecule Name>
CVD-0006408

> <SMILES>
Cc1nnc(s1)C#N

$$$$

  CDD

  0  0  0  0  0  0            999 V2000
M  END
> <Molecule Name>
CVD-0006407

> <SMILES>
Fc1cnc(s1)C#N

$$$$

  CDD

  0  0  0  0  0  0            999 V2000
M  END
> <Molecule Name>
CVD-0006406

> <SMILES>
C[C@H]1NCCCC1c1ccnc(CC#N)c1

$$$$

  CDD

  0  0  0  0  0  0            999 V2000
M  END
> <Molecule Name>
CVD-0006405

> <SMILES>
N#CCc1cc(ccn1)C1CCCCC1

$$$$

  CDD

  0  0  0  0  0  0            999 V2000
M  END
> <Molecule Name>
CVD-0006404

> <SMILES>
N#Cc1cc(ccn1)C1CCCCC1

$$$$

  CDD

  0  0  0  0  0  0            999 V2000
M  END
> <Molecule Name>
CVD-0006403

> <SMILES>
FC(F)(F)C1Nc2ccc(nc12)C#N

$$$$

  CDD

  0  0  0  0  0  0            999 V2000
M  END
> <Molecule Name>
CVD-0006402

> <SMILES>
O=S1(=O)Nc2ccc(nc12)C#N

$$$$

  CDD

  0  0  0  0  0  0            999 V2000
M  END
> <Molecule Name>
CVD-0006401

> <SMILES>
NC(=O)c1cc2[nH]cc(C#N)c2cc1F

$$$$

  CDD

  0  0  0  0  0  0            999 V2000
M  END
> <Molecule Name>
CVD-0006400

> <SMILES>
OC(=O)c1cc2[nH]cc(C#N)c2cc1F

$$$$

  CDD

  0  0  0  0  0  0            999 V2000
M  END
> <Molecule Name>
CVD-0006399

> <SMILES>
FCc1ccc2[nH]cc(C#N)c2c1

$$$$

  CDD

  0  0  0  0  0  0            999 V2000
M  END
> <Molecule Name>
CVD-0006398

> <SMILES>
FC(F)(F)c1ccc2[nH]cc(C#N)c2c1

$$$$

  CDD

  0  0  0  0  0  0            999 V2000
M  END
> <Molecule Name>
CVD-0006397

> <SMILES>
Fc1ccc(\C=C\C(=O)N[C@H](COC(=O)c2ccccc2)C(=O)NC2CCCCC2)cc1

$$$$

  CDD

  0  0  0  0  0  0            999 V2000
M  END
> <Molecule Name>
CVD-0006396

> <SMILES>
CN(C)c1cccc(c1)S(N)(=O)=O

$$$$

  CDD

  0  0  0  0  0  0            999 V2000
M  END
> <Molecule Name>
CVD-0006395

> <SMILES>
CC(C)=CCCS(N)(=O)=O

$$$$

  CDD

  0  0  0  0  0  0            999 V2000
M  END
> <Molecule Name>
CVD-0006394

> <SMILES>
CCC(=O)NC(N)c1ccc2CCCN(C)c2c1

$$$$

  CDD

  0  0  0  0  0  0            999 V2000
M  END
> <Molecule Name>
CVD-0006393

> <SMILES>
CN1CCCc2ccc(cc12)C(N)CCN

$$$$

  CDD

  0  0  0  0  0  0            999 V2000
M  END
> <Molecule Name>
CVD-0006392

> <SMILES>
CCNCC(O)S(N)(=O)=O

$$$$

  CDD

  0  0  0  0  0  0            999 V2000
M  END
> <Molecule Name>
CVD-0006391

> <SMILES>
Cn1ccc(CN(C(=O)Cn2nnc3ccccc23)c2ccc(cc2)-c2ccccc2)c1

$$$$

  CDD

  0  0  0  0  0  0            999 V2000
M  END
> <Molecule Name>
CVD-0006390

> <SMILES>
Cc1ccncc1C(NC(=O)CCCNC(N)=N)C(=O)Nc1cccc(c1)C#N

$$$$

  CDD

  0  0  0  0  0  0            999 V2000
M  END
> <Molecule Name>
CVD-0006389

> <SMILES>
Cc1ccncc1C(NC(=O)CC1CC1)C(=O)Nc1cccc(c1)C#N

$$$$

  CDD

  0  0  0  0  0  0            999 V2000
M  END
> <Molecule Name>
CVD-0006388

> <SMILES>
Cc1ccncc1C(NC(=O)CCCCC(C)(C)O)C(=O)Nc1cccc(c1)C#N

$$$$

  CDD

  0  0  0  0  0  0            999 V2000
M  END
> <Molecule Name>
CVD-0006387

> <SMILES>
Cc1ccncc1C(NC(=O)CCCCC(N)=N)C(=O)Nc1cccc(c1)C#N

$$$$

  CDD

  0  0  0  0  0  0            999 V2000
M  END
> <Molecule Name>
CVD-0006386

> <SMILES>
CN(C)CCCCC(=O)NC(C(=O)Nc1cccc(c1)C#N)c1cnccc1C

$$$$

  CDD

  0  0  0  0  0  0            999 V2000
M  END
> <Molecule Name>
CVD-0006385

> <SMILES>
Cc1ccncc1C(NC(=O)NCCCC(C)(C)O)C(=O)Nc1cccc(c1)C#N

$$$$

  CDD

  0  0  0  0  0  0            999 V2000
M  END
> <Molecule Name>
CVD-0006384

> <SMILES>
Cc1ccncc1C(NC(=O)NCCNC(N)=N)C(=O)Nc1cccc(c1)C#N

$$$$

  CDD

  0  0  0  0  0  0            999 V2000
M  END
> <Molecule Name>
CVD-0006383

> <SMILES>
Cc1ccncc1C(NC(=O)NCCCC(N)=N)C(=O)Nc1cccc(c1)C#N

$$$$

  CDD

  0  0  0  0  0  0            999 V2000
M  END
> <Molecule Name>
CVD-0006382

> <SMILES>
CN(C)CCCNC(=O)NC(C(=O)Nc1cccc(c1)C#N)c1cnccc1C

$$$$

  CDD

  0  0  0  0  0  0            999 V2000
M  END
> <Molecule Name>
CVD-0006381

> <SMILES>
Cc1ccncc1C(NS(=O)(=O)CC1CC1)C(=O)Nc1cccc(c1)C#N

$$$$

  CDD

  0  0  0  0  0  0            999 V2000
M  END
> <Molecule Name>
CVD-0006380

> <SMILES>
Cc1ccncc1C(NS(C)(=O)=O)C(=O)Nc1cccc(c1)C#N

$$$$

  CDD

  0  0  0  0  0  0            999 V2000
M  END
> <Molecule Name>
CVD-0006379

> <SMILES>
Cc1ccncc1C(NC(=O)NC1CC1)C(=O)Nc1cccc(c1)C#N

$$$$

  CDD

  0  0  0  0  0  0            999 V2000
M  END
> <Molecule Name>
CVD-0006378

> <SMILES>
CCNC(=O)NC(C(=O)Nc1cccc(c1)C#N)c1cnccc1C

$$$$

  CDD

  0  0  0  0  0  0            999 V2000
M  END
> <Molecule Name>
CVD-0006377

> <SMILES>
Cc1ccncc1C(NC(=O)CC1CC1)C(=O)NCc1cccc(c1)C#N

$$$$

  CDD

  0  0  0  0  0  0            999 V2000
M  END
> <Molecule Name>
CVD-0006376

> <SMILES>
ClCC(=O)Nc1ccsc1

$$$$

  CDD

  0  0  0  0  0  0            999 V2000
M  END
> <Molecule Name>
CVD-0006375

> <SMILES>
C=CC(=O)N1CCC1

$$$$

  CDD

  0  0  0  0  0  0            999 V2000
M  END
> <Molecule Name>
CVD-0006374

> <SMILES>
ClCC(=O)Nc1ccccc1

$$$$

  CDD

  0  0  0  0  0  0            999 V2000
M  END
> <Molecule Name>
CVD-0006373

> <SMILES>
CCC(=O)N1COC(C1)C#N

$$$$

  CDD

  0  0  0  0  0  0            999 V2000
M  END
> <Molecule Name>
CVD-0006372

> <SMILES>
ClCC(=O)N1CSCCO1

$$$$

  CDD

  0  0  0  0  0  0            999 V2000
M  END
> <Molecule Name>
CVD-0006371

> <SMILES>
ClCC(=O)N1CSC(C1)C#N

$$$$

  CDD

  0  0  0  0  0  0            999 V2000
M  END
> <Molecule Name>
CVD-0006370

> <SMILES>
ClCC(=O)N1COC(C1)C#N

$$$$

  CDD

  0  0  0  0  0  0            999 V2000
M  END
> <Molecule Name>
CVD-0006369

> <SMILES>
ClCC(=O)N1CN=C(C1)C#N

$$$$

  CDD

  0  0  0  0  0  0            999 V2000
M  END
> <Molecule Name>
CVD-0006368

> <SMILES>
ClCC(=O)N1CCOC1

$$$$

  CDD

  0  0  0  0  0  0            999 V2000
M  END
> <Molecule Name>
CVD-0006367

> <SMILES>
ClCC(=O)NC1=CSCC1

$$$$

  CDD

  0  0  0  0  0  0            999 V2000
M  END
> <Molecule Name>
CVD-0006366

> <SMILES>
CN1CC(CO)Cc2ccc(cc12)S(N)(=O)=O

$$$$

  CDD

  0  0  0  0  0  0            999 V2000
M  END
> <Molecule Name>
CVD-0006365

> <SMILES>
NCN1CCCc2ccc(cc12)S(N)(=O)=O

$$$$

  CDD

  0  0  0  0  0  0            999 V2000
M  END
> <Molecule Name>
CVD-0006364

> <SMILES>
NCCN1CCCc2ccc(cc12)S(N)(=O)=O

$$$$

  CDD

  0  0  0  0  0  0            999 V2000
M  END
> <Molecule Name>
CVD-0006363

> <SMILES>
CC(CNCCCO)CN1CCCc2ccc(cc12)S(N)(=O)=O

$$$$

  CDD

  0  0  0  0  0  0            999 V2000
M  END
> <Molecule Name>
CVD-0006362

> <SMILES>
CN1CCCc2ccc(cc12)S(=O)(=O)NCN1CCOCC1

$$$$

  CDD

  0  0  0  0  0  0            999 V2000
M  END
> <Molecule Name>
CVD-0006361

> <SMILES>
Cc1cnc(cc1C(=O)[C@@H](NC(=O)C(C)(C)C)C(C)(C)C)C(=O)N[C@@H](CC1CCC1)C(=O)C(N)=O

$$$$

  CDD

  0  0  0  0  0  0            999 V2000
M  END
> <Molecule Name>
CVD-0006360

> <SMILES>
Oc1cc(F)cc2c(c[nH]c12)C#N

$$$$

  CDD

  0  0  0  0  0  0            999 V2000
M  END
> <Molecule Name>
CVD-0006359

> <SMILES>
OC(=O)NC(=O)Cc1c[nH]c2ccc(F)cc12

$$$$

  CDD

  0  0  0  0  0  0            999 V2000
M  END
> <Molecule Name>
CVD-0006358

> <SMILES>
Fc1ccc2[nH]cc(C#N)c2c1

$$$$

  CDD

  0  0  0  0  0  0            999 V2000
M  END
> <Molecule Name>
CVD-0006357

> <SMILES>
Cc1noc(C)c1CN1C(=O)C(=O)c2cc(ccc12)C#N

$$$$

  CDD

  0  0  0  0  0  0            999 V2000
M  END
> <Molecule Name>
CVD-0006356

> <SMILES>
COc1cccc2[nH]c(cc12)C(=O)N[C@@H](CC(C)C)C(=O)N[C@@H](C[C@@H]1CCNC1=O)C(=O)CO

$$$$

  CDD

  0  0  0  0  0  0            999 V2000
M  END
> <Molecule Name>
CVD-0006355

> <SMILES>
CC(C)(C)NC(=O)C(N(C(=O)c1ccco1)c1ccc(cc1)C(C)(C)C)c1cccnc1

$$$$

  CDD

  0  0  0  0  0  0            999 V2000
M  END
> <Molecule Name>
CVD-0006354

> <SMILES>
Clc1cncc(OC(=O)c2cccc3[nH]ccc23)c1

$$$$

  CDD

  0  0  0  0  0  0            999 V2000
M  END
> <Molecule Name>
CVD-0006353

> <SMILES>
CNc1ccc(cc1)N(Cc1ccsc1)C(=O)Cn1nnc2ccccc12

$$$$

  CDD

  0  0  0  0  0  0            999 V2000
M  END
> <Molecule Name>
CVD-0006352

> <SMILES>
O=C(Cn1nnc2ccccc12)N(Cc1ccsc1)c1ccc(NC(=O)C2CC2)cc1

$$$$

  CDD

  0  0  0  0  0  0            999 V2000
M  END
> <Molecule Name>
CVD-0006351

> <SMILES>
CCC(=O)Nc1ccc(cc1)N(Cc1ccsc1)C(=O)Cn1nnc2ccccc12

$$$$

  CDD

  0  0  0  0  0  0            999 V2000
M  END
> <Molecule Name>
CVD-0006350

> <SMILES>
O=C(Cn1nnc2ccccc12)N(Cc1ccsc1)c1ccc(cc1)-c1ccccc1

$$$$

  CDD

  0  0  0  0  0  0            999 V2000
M  END
> <Molecule Name>
CVD-0006349

> <SMILES>
CC(=O)NCCc1c[nH]c2c(cc(F)cc12)C(O)=O

$$$$

  CDD

  0  0  0  0  0  0            999 V2000
M  END
> <Molecule Name>
CVD-0006348

> <SMILES>
OC(=O)CC(=O)NCCc1c[nH]c2ccc(F)cc12

$$$$

  CDD

  0  0  0  0  0  0            999 V2000
M  END
> <Molecule Name>
CVD-0006347

> <SMILES>
Fc1ccc2[nH]cc(CCNC(=O)CN3CCOCC3)c2c1

$$$$

  CDD

  0  0  0  0  0  0            999 V2000
M  END
> <Molecule Name>
CVD-0006346

> <SMILES>
CC(=O)NCCc1c[nH]c2c(cc(F)cc12)N1CCNCC1

$$$$

  CDD

  0  0  0  0  0  0            999 V2000
M  END
> <Molecule Name>
CVD-0006345

> <SMILES>
CC(NC1COCC1O)c1cc(F)cc2c(CCNC(C)=O)c[nH]c12

$$$$

  CDD

  0  0  0  0  0  0            999 V2000
M  END
> <Molecule Name>
CVD-0006344

> <SMILES>
CC(=O)NCCc1c[nH]c2c(CN3CCOCC3)cc(F)cc12

$$$$

  CDD

  0  0  0  0  0  0            999 V2000
M  END
> <Molecule Name>
CVD-0006343

> <SMILES>
CC(NC1COCC1O)C(=O)NCCc1c[nH]c2ccc(F)cc12

$$$$

  CDD

  0  0  0  0  0  0            999 V2000
M  END
> <Molecule Name>
CVD-0006342

> <SMILES>
CC(=O)NCCc1c[nH]c2c(CN3CCNCC3)cc(F)cc12

$$$$

  CDD

  0  0  0  0  0  0            999 V2000
M  END
> <Molecule Name>
CVD-0006341

> <SMILES>
Fc1ccc2[nH]cc(CCNC(=O)CN3CCNCC3)c2c1

$$$$

  CDD

  0  0  0  0  0  0            999 V2000
M  END
> <Molecule Name>
CVD-0006340

> <SMILES>
FC1=CC(N=C1)n1cc(s1)C#N

$$$$

  CDD

  0  0  0  0  0  0            999 V2000
M  END
> <Molecule Name>
CVD-0006339

> <SMILES>
ClCC(=O)NCC1C=CN=C1C#N

$$$$

  CDD

  0  0  0  0  0  0            999 V2000
M  END
> <Molecule Name>
CVD-0006338

> <SMILES>
ClCC(=O)Nc1cnc(nc1)C1CC1

$$$$

  CDD

  0  0  0  0  0  0            999 V2000
M  END
> <Molecule Name>
CVD-0006337

> <SMILES>
O=C(Cn1ccnn1)N(CC(=O)N1CCNCC1)c1ccc(cc1)-c1ccccn1

$$$$

  CDD

  0  0  0  0  0  0            999 V2000
M  END
> <Molecule Name>
CVD-0006336

> <SMILES>
O=C(Cc1cccnc1)N(CC(=O)N1CCNCC1)c1ccc(cc1)-n1cnnc1

$$$$

  CDD

  0  0  0  0  0  0            999 V2000
M  END
> <Molecule Name>
CVD-0006335

> <SMILES>
O=C(Cn1nnc2ccccc12)N(Cc1ccccn1)c1ccc(cc1)-n1cnnc1

$$$$

  CDD

  0  0  0  0  0  0            999 V2000
M  END
> <Molecule Name>
CVD-0006334

> <SMILES>
Oc1ccc2nnn(CC(=O)N(CC(=O)N3CCNCC3)c3cnc(nc3)-c3ccccc3)c2c1

$$$$

  CDD

  0  0  0  0  0  0            999 V2000
M  END
> <Molecule Name>
CVD-0006333

> <SMILES>
O=C(Cn1ccnn1)N(CC(=O)N1CCNCC1)c1ccc(cc1)N1CCOCC1

$$$$

  CDD

  0  0  0  0  0  0            999 V2000
M  END
> <Molecule Name>
CVD-0006332

> <SMILES>
O=C(Cn1nnc2ccccc12)N(Cc1ccccn1)c1cnc(nc1)-c1ccccc1

$$$$

  CDD

  0  0  0  0  0  0            999 V2000
M  END
> <Molecule Name>
CVD-0006331

> <SMILES>
Cn1ccc(CN(C(=O)Cc2cccnc2)c2ccc(cc2)-c2ccccn2)n1

$$$$

  CDD

  0  0  0  0  0  0            999 V2000
M  END
> <Molecule Name>
CVD-0006330

> <SMILES>
O=C(Cn1nnc2ccccc12)N(CC1CCOC1)c1ccc(cc1)C1CCNCC1

$$$$

  CDD

  0  0  0  0  0  0            999 V2000
M  END
> <Molecule Name>
CVD-0006329

> <SMILES>
NCc1cn(CC(=O)N(Cc2ccsc2)c2ccc(cc2)N2CCOCC2)nn1

$$$$

  CDD

  0  0  0  0  0  0            999 V2000
M  END
> <Molecule Name>
CVD-0006328

> <SMILES>
NCc1cn(CC(=O)N(Cc2ccsc2)c2ccc(cc2)-n2cnnc2)nn1

$$$$

  CDD

  0  0  0  0  0  0            999 V2000
M  END
> <Molecule Name>
CVD-0006327

> <SMILES>
O=C(Cc1cccnc1)N(CC(=O)N1CCNCC1)c1ccc(cc1)-c1ncccn1

$$$$

  CDD

  0  0  0  0  0  0            999 V2000
M  END
> <Molecule Name>
CVD-0006326

> <SMILES>
Cn1cnc(CN(C(=O)c2cnnn2-c2ccccc2)c2ccc(OCc3ccccc3)cc2)c1

$$$$

  CDD

  0  0  0  0  0  0            999 V2000
M  END
> <Molecule Name>
CVD-0006325

> <SMILES>
O=C(Cn1nnc2CNCCc12)N(CC1CCOC1)c1ccc(cc1)-c1ccccc1

$$$$

  CDD

  0  0  0  0  0  0            999 V2000
M  END
> <Molecule Name>
CVD-0006324

> <SMILES>
NCc1cn(CC(=O)N(CC(=O)N2CCNCC2)c2ccc(cc2)-c2ccccc2)nn1

$$$$

  CDD

  0  0  0  0  0  0            999 V2000
M  END
> <Molecule Name>
CVD-0006323

> <SMILES>
CC(C)(C(N)=O)c1ccc(cc1)N(Cc1ccsc1)C(=O)Cn1nnc2ccccc12

$$$$

  CDD

  0  0  0  0  0  0            999 V2000
M  END
> <Molecule Name>
CVD-0006322

> <SMILES>
NCc1cn(CC(=O)N(Cc2ccsc2)c2ccc(cc2)-c2ccccc2)nn1

$$$$

  CDD

  0  0  0  0  0  0            999 V2000
M  END
> <Molecule Name>
CVD-0006321

> <SMILES>
NCc1cn(CC(=O)N(Cc2cscn2)c2ccc(nc2)-c2ccccc2)nn1

$$$$

  CDD

  0  0  0  0  0  0            999 V2000
M  END
> <Molecule Name>
CVD-0006320

> <SMILES>
O=C(Cn1nnc2ccccc12)N(CC(=O)N1CCNCC1)c1ccc(cc1)-c1ccccc1

$$$$

  CDD

  0  0  0  0  0  0            999 V2000
M  END
> <Molecule Name>
CVD-0006319

> <SMILES>
COc1ccc2nnc(CC(=O)N(CC(=O)N3CCNCC3)c3ccc(cc3)-c3ccncc3)n2c1

$$$$

  CDD

  0  0  0  0  0  0            999 V2000
M  END
> <Molecule Name>
CVD-0006318

> <SMILES>
COc1ccc2nnn(CC(=O)N(Cc3ccccn3)c3ccc(cc3)C3CCNCC3)c2c1

$$$$

  CDD

  0  0  0  0  0  0            999 V2000
M  END
> <Molecule Name>
CVD-0006317

> <SMILES>
COc1cc(OC)cc(Oc2cccc(CNC(=O)Cn3nnc4ccccc34)c2)c1

$$$$

  CDD

  0  0  0  0  0  0            999 V2000
M  END
> <Molecule Name>
CVD-0006316

> <SMILES>
CC(=O)Nc1ccc(C=C(F)CNCC2=CCC(CC=C(F)CCN)C=C2)cc1

$$$$

  CDD

  0  0  0  0  0  0            999 V2000
M  END
> <Molecule Name>
CVD-0006315

> <SMILES>
CC(O)C[C@@](C)([C@@H]1CCC[C@H]1[C@@H]1CCC[C@H]1NC(O)=O)C1=NC(O)=CC1

$$$$

  CDD

  0  0  0  0  0  0            999 V2000
M  END
> <Molecule Name>
CVD-0006314

> <SMILES>
O=C(N1CCN(CCCn2c3ccccc3[nH]c2=O)C1)N1CCOCC1

$$$$

  CDD

  0  0  0  0  0  0            999 V2000
M  END
> <Molecule Name>
CVD-0006313

> <SMILES>
C[C@H](CC(F)=CCNC1CCC(O)CC1)C1=CNCC1=CC=CN

$$$$

  CDD

  0  0  0  0  0  0            999 V2000
M  END
> <Molecule Name>
CVD-0006312

> <SMILES>
CNC(=O)N1CC=C(NC([C@@H]2CCCC[C@H]2N)S(N)(=O)=O)C=C1

$$$$

  CDD

  0  0  0  0  0  0            999 V2000
M  END
> <Molecule Name>
CVD-0006311

> <SMILES>
CNC(=O)N1CCN(CC1)C(C)=C(CO)SC

$$$$

  CDD

  0  0  0  0  0  0            999 V2000
M  END
> <Molecule Name>
CVD-0006310

> <SMILES>
FC(F)(F)c1ccc(Cc2c[nH]c3ncccc23)cc1

$$$$

  CDD

  0  0  0  0  0  0            999 V2000
M  END
> <Molecule Name>
CVD-0006309

> <SMILES>
CC1=C(CNC(C#N)=C1C[C@@]1(C)CCCC(C)(C)C1)N1CCN(CC1)C(O)=O

$$$$

  CDD

  0  0  0  0  0  0            999 V2000
M  END
> <Molecule Name>
CVD-0006308

> <SMILES>
ClCC(=O)N1CCC(CC1)C(=O)Nc1ccccc1C1COC1

$$$$

  CDD

  0  0  0  0  0  0            999 V2000
M  END
> <Molecule Name>
CVD-0006307

> <SMILES>
ClCC(=O)N1CCC(CC1)C(=O)Nc1ccccc1N1CCC1

$$$$

  CDD

  0  0  0  0  0  0            999 V2000
M  END
> <Molecule Name>
CVD-0006306

> <SMILES>
ClCC(=O)N1CCC(CC1)C(=O)NC1CCCC(C1)C1CCCCC1

$$$$

  CDD

  0  0  0  0  0  0            999 V2000
M  END
> <Molecule Name>
CVD-0006305

> <SMILES>
CCc1ccc(NC(=O)C2CCN(CC2)C(=O)CCl)nc1

$$$$

  CDD

  0  0  0  0  0  0            999 V2000
M  END
> <Molecule Name>
CVD-0006304

> <SMILES>
Cc1ccc(NC(=O)C2CCN(CC2)C(=O)CCl)nc1

$$$$

  CDD

  0  0  0  0  0  0            999 V2000
M  END
> <Molecule Name>
CVD-0006303

> <SMILES>
N#CCC1C=CC=C1

$$$$

  CDD

  0  0  0  0  0  0            999 V2000
M  END
> <Molecule Name>
CVD-0006302

> <SMILES>
O=C(Cn1cccn1)N1CCOC(C1)C#N

$$$$

  CDD

  0  0  0  0  0  0            999 V2000
M  END
> <Molecule Name>
CVD-0006301

> <SMILES>
ClCC(=O)N1CCN(CC1)C(=O)CCl

$$$$

  CDD

  0  0  0  0  0  0            999 V2000
M  END
> <Molecule Name>
CVD-0006300

> <SMILES>
NS(=O)(=O)CC(=O)N1CCN(CC1)C(=O)CCl

$$$$

  CDD

  0  0  0  0  0  0            999 V2000
M  END
> <Molecule Name>
CVD-0006299

> <SMILES>
ClCC(=O)N1CS(=O)(=O)CC2CSC=C12

$$$$

  CDD

  0  0  0  0  0  0            999 V2000
M  END
> <Molecule Name>
CVD-0006298

> <SMILES>
ClCC(=O)N1CSCN(C1)C(=O)C(=O)c1cccc(Cl)c1

$$$$

  CDD

  0  0  0  0  0  0            999 V2000
M  END
> <Molecule Name>
CVD-0006297

> <SMILES>
ClCC(=O)N1CCN(CC1)C(=O)c1cscc1Cl

$$$$

  CDD

  0  0  0  0  0  0            999 V2000
M  END
> <Molecule Name>
CVD-0006296

> <SMILES>
CS1=NC(CC(=O)N2CCN(CC2)C(=O)CCl)C=C1

$$$$

  CDD

  0  0  0  0  0  0            999 V2000
M  END
> <Molecule Name>
CVD-0006295

> <SMILES>
NS(=O)(=O)c1ccncc1NC(=O)C(=O)c1cccc(Cl)c1

$$$$

  CDD

  0  0  0  0  0  0            999 V2000
M  END
> <Molecule Name>
CVD-0006294

> <SMILES>
Fn1cc(CNC(=O)CCl)nn1

$$$$

  CDD

  0  0  0  0  0  0            999 V2000
M  END
> <Molecule Name>
CVD-0006293

> <SMILES>
NC(=N)CCl

$$$$

  CDD

  0  0  0  0  0  0            999 V2000
M  END
> <Molecule Name>
CVD-0006292

> <SMILES>
O=C(Nc1cccnc1)Nc1cccc(c1)-c1ccnc(c1)N1CCC2(CCOC2)C1

$$$$

  CDD

  0  0  0  0  0  0            999 V2000
M  END
> <Molecule Name>
CVD-0006291

> <SMILES>
CC1CCCC(CC1)C#N

$$$$

  CDD

  0  0  0  0  0  0            999 V2000
M  END
> <Molecule Name>
CVD-0006290

> <SMILES>
CC1C(N)C1C#N

$$$$

  CDD

  0  0  0  0  0  0            999 V2000
M  END
> <Molecule Name>
CVD-0006289

> <SMILES>
N#CC1=NCC1

$$$$

  CDD

  0  0  0  0  0  0            999 V2000
M  END
> <Molecule Name>
CVD-0006288

> <SMILES>
FC1CN=C1C#N

$$$$

  CDD

  0  0  0  0  0  0            999 V2000
M  END
> <Molecule Name>
CVD-0006287

> <SMILES>
OC1NN=C1C#N

$$$$

  CDD

  0  0  0  0  0  0            999 V2000
M  END
> <Molecule Name>
CVD-0006286

> <SMILES>
Cn1cc(s1)C#N

$$$$

  CDD

  0  0  0  0  0  0            999 V2000
M  END
> <Molecule Name>
CVD-0006285

> <SMILES>
O=S(=O)(CC#N)C1CN=CN1

$$$$

  CDD

  0  0  0  0  0  0            999 V2000
M  END
> <Molecule Name>
CVD-0006284

> <SMILES>
FC(F)(F)C(C#N)S(=O)(=O)C1CC1

$$$$

  CDD

  0  0  0  0  0  0            999 V2000
M  END
> <Molecule Name>
CVD-0006283

> <SMILES>
FC(F)(F)C(C#N)S(=O)(=O)C1CN=CN1

$$$$

  CDD

  0  0  0  0  0  0            999 V2000
M  END
> <Molecule Name>
CVD-0006282

> <SMILES>
CS(=O)(=O)C(C#N)C(F)(F)F

$$$$

  CDD

  0  0  0  0  0  0            999 V2000
M  END
> <Molecule Name>
CVD-0006281

> <SMILES>
NS(=O)(=O)C(C#N)C(F)(F)F

$$$$

  CDD

  0  0  0  0  0  0            999 V2000
M  END
> <Molecule Name>
CVD-0006280

> <SMILES>
CC(C#N)S(C)(=O)=O

$$$$

  CDD

  0  0  0  0  0  0            999 V2000
M  END
> <Molecule Name>
CVD-0006279

> <SMILES>
O=C(N1CC=CC=C1)c1ccc(cc1)C1=CCCC1

$$$$

  CDD

  0  0  0  0  0  0            999 V2000
M  END
> <Molecule Name>
CVD-0006278

> <SMILES>
CNC(=O)C1C=CC(=N1)C(\SC)=C\N(C)C(=O)[C@@H]1CCCC[C@H]1CC(C)S(N)(=O)=O

$$$$

  CDD

  0  0  0  0  0  0            999 V2000
M  END
> <Molecule Name>
CVD-0006277

> <SMILES>
CCNC(=O)c1ccc(CNc2ccc(cc2)C(=O)NC)cc1

$$$$

  CDD

  0  0  0  0  0  0            999 V2000
M  END
> <Molecule Name>
CVD-0006276

> <SMILES>
CCC([C@@H]1CCC[C@H]1C(F)(F)F)C(=O)Nc1ccc(Cl)cc1

$$$$

  CDD

  0  0  0  0  0  0            999 V2000
M  END
> <Molecule Name>
CVD-0006275

> <SMILES>
CC[C@@H](N)[C@@H](C)C1NC(C=N1)C(C)C1CCC(O)CC1

$$$$

  CDD

  0  0  0  0  0  0            999 V2000
M  END
> <Molecule Name>
CVD-0006274

> <SMILES>
CS(=O)(=O)C1CCc2c(Cl)cccc2C1N

$$$$

  CDD

  0  0  0  0  0  0            999 V2000
M  END
> <Molecule Name>
CVD-0006273

> <SMILES>
CNC(=O)C1CN=C(C=C1)C1=COC(C)CN1C(=O)N1CCN(CC1)[C@@H]1CCC[C@H]1N(C)CCOC

$$$$

  CDD

  0  0  0  0  0  0            999 V2000
M  END
> <Molecule Name>
CVD-0006272

> <SMILES>
CNC(=O)C1CC=C(N[C@@H]2O[C@H](CO)CCS2)C=C1

$$$$

  CDD

  0  0  0  0  0  0            999 V2000
M  END
> <Molecule Name>
CVD-0006271

> <SMILES>
COc1ccc(cc1OC)C1CC(C)=NN1C(=O)c1ccccn1

$$$$

  CDD

  0  0  0  0  0  0            999 V2000
M  END
> <Molecule Name>
CVD-0006270

> <SMILES>
COc1ccc(cc1OC)C1CC1C(F)c1ccccn1

$$$$

  CDD

  0  0  0  0  0  0            999 V2000
M  END
> <Molecule Name>
CVD-0006269

> <SMILES>
C1C(C1c1ccccn1)c1ccc2OCCOc2c1

$$$$

  CDD

  0  0  0  0  0  0            999 V2000
M  END
> <Molecule Name>
CVD-0006268

> <SMILES>
COc1cc(ccc1SC)C1C(F)CN(N=S1N)C(=O)c1ccccn1

$$$$

  CDD

  0  0  0  0  0  0            999 V2000
M  END
> <Molecule Name>
CVD-0006267

> <SMILES>
COc1cc(ccc1SC)C1S(=NN(CC1(O)F)C(=O)c1ccccn1)C(F)=C

$$$$

  CDD

  0  0  0  0  0  0            999 V2000
M  END
> <Molecule Name>
CVD-0006266

> <SMILES>
COc1ccc(cc1OC)C1CC(F)S(N)=NN1C(=O)Cc1ccccn1

$$$$

  CDD

  0  0  0  0  0  0            999 V2000
M  END
> <Molecule Name>
CVD-0006265

> <SMILES>
COc1ccc(cc1OC)C1CC(=NN1C(=O)c1ccccn1)C(Cl)=C(N)N

$$$$

  CDD

  0  0  0  0  0  0            999 V2000
M  END
> <Molecule Name>
CVD-0006264

> <SMILES>
CN(C(=O)c1ccccn1)c1ccc2OCOc2c1

$$$$

  CDD

  0  0  0  0  0  0            999 V2000
M  END
> <Molecule Name>
CVD-0006263

> <SMILES>
COc1ccc(cc1OC)C1CC(=NN1C(=O)c1ccccn1)C(F)=C(N)N

$$$$

  CDD

  0  0  0  0  0  0            999 V2000
M  END
> <Molecule Name>
CVD-0006262

> <SMILES>
O=C(N1CC(C=N1)c1ccc2OCOc2c1)c1ccccn1

$$$$

  CDD

  0  0  0  0  0  0            999 V2000
M  END
> <Molecule Name>
CVD-0006261

> <SMILES>
CCC(=C)N(C(=O)c1ccccn1)c1ccc(OC)c(OC)c1

$$$$

  CDD

  0  0  0  0  0  0            999 V2000
M  END
> <Molecule Name>
CVD-0006260

> <SMILES>
COc1ccc(cc1OC)N(C)C(=O)c1ccccn1

$$$$

  CDD

  0  0  0  0  0  0            999 V2000
M  END
> <Molecule Name>
CVD-0006259

> <SMILES>
NC(=O)C1=NCC(=N1)C1=CS(=O)(=O)CN1

$$$$

  CDD

  0  0  0  0  0  0            999 V2000
M  END
> <Molecule Name>
CVD-0006258

> <SMILES>
CS(=O)(=O)C1=NC=C(CN1)c1ccc(cc1)C(N)=O

$$$$

  CDD

  0  0  0  0  0  0            999 V2000
M  END
> <Molecule Name>
CVD-0006257

> <SMILES>
CS(=O)(=O)C1=NC=CC(O)N1

$$$$

  CDD

  0  0  0  0  0  0            999 V2000
M  END
> <Molecule Name>
CVD-0006256

> <SMILES>
Cc1[nH]sc1C#N

$$$$

  CDD

  0  0  0  0  0  0            999 V2000
M  END
> <Molecule Name>
CVD-0006255

> <SMILES>
CCC1=C(CNC(C2CCCC2)=C1C(=O)NC1CC=CC=C1)C1CCC(O)CC1

$$$$

  CDD

  0  0  0  0  0  0            999 V2000
M  END
> <Molecule Name>
CVD-0006254

> <SMILES>
CCC(CNc1ccc(Cl)cc1)C(C)C

$$$$

  CDD

  0  0  0  0  0  0            999 V2000
M  END
> <Molecule Name>
CVD-0006253

> <SMILES>
CNC(=O)N1CC=C(NCC(=O)NC2CCCC2)C(CO)=C1

$$$$

  CDD

  0  0  0  0  0  0            999 V2000
M  END
> <Molecule Name>
CVD-0006252

> <SMILES>
CCNC(=O)c1ccc(cc1)N1CCN(CC1)C(C1CCC(O)CC1)C(=O)Nc1ccc(Cl)cc1

$$$$

  CDD

  0  0  0  0  0  0            999 V2000
M  END
> <Molecule Name>
CVD-0006251

> <SMILES>
CNC(=O)C1CN=C(NC[C@@H]2CCC[C@H]2N)C=C1

$$$$

  CDD

  0  0  0  0  0  0            999 V2000
M  END
> <Molecule Name>
CVD-0006250

> <SMILES>
CNC(=O)C1CC(N)=C(CCc2cnc(C#N)c(CC(=O)N3CCC(C)C3)c2)N=C1

$$$$

  CDD

  0  0  0  0  0  0            999 V2000
M  END
> <Molecule Name>
CVD-0006249

> <SMILES>
C[C@H](NC[C@@H]1CCC[C@H]1N)C1=CNC\C1=C(\C=C)S(N)(=O)=O

$$$$

  CDD

  0  0  0  0  0  0            999 V2000
M  END
> <Molecule Name>
CVD-0006248

> <SMILES>
C[C@@H]([C@@H]1CCC[C@H]1C[C@@H]1CCC[C@H]1CCC(=O)N1CCN(CC1)C(C)=O)C1CCOCC1

$$$$

  CDD

  0  0  0  0  0  0            999 V2000
M  END
> <Molecule Name>
CVD-0006247

> <SMILES>
FC(F)(C(=O)c1ccc(o1)-c1ccc(Cl)cc1)c1cncc(Br)c1

$$$$

  CDD

  0  0  0  0  0  0            999 V2000
M  END
> <Molecule Name>
CVD-0006246

> <SMILES>
ClCC(=O)N1C=CCS1(=O)=O

$$$$

  CDD

  0  0  0  0  0  0            999 V2000
M  END
> <Molecule Name>
CVD-0006245

> <SMILES>
ClCC(=O)N1C=CC(C#N)S1(=O)=O

$$$$

  CDD

  0  0  0  0  0  0            999 V2000
M  END
> <Molecule Name>
CVD-0006244

> <SMILES>
ClCC(=O)N1OC(C=C1)C#N

$$$$

  CDD

  0  0  0  0  0  0            999 V2000
M  END
> <Molecule Name>
CVD-0006243

> <SMILES>
ClCC(=O)N1CC(C=C1)C#N

$$$$

  CDD

  0  0  0  0  0  0            999 V2000
M  END
> <Molecule Name>
CVD-0006242

> <SMILES>
ClCC(=O)N1CCCC(C1)C#N

$$$$

  CDD

  0  0  0  0  0  0            999 V2000
M  END
> <Molecule Name>
CVD-0006241

> <SMILES>
ClCC(=O)N1CCC(CC1)C#N

$$$$

  CDD

  0  0  0  0  0  0            999 V2000
M  END
> <Molecule Name>
CVD-0006240

> <SMILES>
CNC(=O)C(=O)CN(Cc1c[nH]nn1)C(=O)[C@@H](C[C@@H]1CCNC1=O)c1cc(=O)c2c(O)cc(O)cc2o1

$$$$

  CDD

  0  0  0  0  0  0            999 V2000
M  END
> <Molecule Name>
CVD-0006239

> <SMILES>
Fc1cccc(-c2ccccc2S(=O)(=O)N2CCN(CC2)C(=O)CCl)c1C#N

$$$$

  CDD

  0  0  0  0  0  0            999 V2000
M  END
> <Molecule Name>
CVD-0006238

> <SMILES>
CC(=O)C(=O)N1CCN(CC1)S(=O)(=O)c1ccsc1

$$$$

  CDD

  0  0  0  0  0  0            999 V2000
M  END
> <Molecule Name>
CVD-0006237

> <SMILES>
ClCC(=O)N1CCN(CC1)S(=O)(=O)C1=CC2OCOC2C=C1

$$$$

  CDD

  0  0  0  0  0  0            999 V2000
M  END
> <Molecule Name>
CVD-0006236

> <SMILES>
ClCC(=O)N1CCN(CC2=CC3OCOC3C=C2)CC1

$$$$

  CDD

  0  0  0  0  0  0            999 V2000
M  END
> <Molecule Name>
CVD-0006235

> <SMILES>
Fc1ccc2SC3CN(CCN3c2c1)C(=O)CCl

$$$$

  CDD

  0  0  0  0  0  0            999 V2000
M  END
> <Molecule Name>
CVD-0006234

> <SMILES>
ClCC(=O)N1CCN(CC1)S(=O)(=O)c1cc(Cl)cc(Cl)c1

$$$$

  CDD

  0  0  0  0  0  0            999 V2000
M  END
> <Molecule Name>
CVD-0006233

> <SMILES>
ClCC(=O)N1CCN(CC1)S(=O)(=O)c1cpcc(Cl)c1

$$$$

  CDD

  0  0  0  0  0  0            999 V2000
M  END
> <Molecule Name>
CVD-0006232

> <SMILES>
ClCC1CSCC(S1)S(=O)(=O)N1CCN(CC1)C(=O)CCl

$$$$

  CDD

  0  0  0  0  0  0            999 V2000
M  END
> <Molecule Name>
CVD-0006231

> <SMILES>
ClCC(=O)N1CCS(=O)(=O)CC1

$$$$

  CDD

  0  0  0  0  0  0            999 V2000
M  END
> <Molecule Name>
CVD-0006230

> <SMILES>
ClCC(=O)N1CCN(Cc2cscc2Cl)CC1

$$$$

  CDD

  0  0  0  0  0  0            999 V2000
M  END
> <Molecule Name>
CVD-0006229

> <SMILES>
Clc1csc(CNC(=O)Nc2cccnc2)c1

$$$$

  CDD

  0  0  0  0  0  0            999 V2000
M  END
> <Molecule Name>
CVD-0006228

> <SMILES>
Clc1ccccc1CCNC(=O)Nc1cccnc1

$$$$

  CDD

  0  0  0  0  0  0            999 V2000
M  END
> <Molecule Name>
CVD-0006227

> <SMILES>
Clc1cc(NC(=O)Nc2cccnc2)cs1

$$$$

  CDD

  0  0  0  0  0  0            999 V2000
M  END
> <Molecule Name>
CVD-0006226

> <SMILES>
Clc1cccnc1CNC(=O)Nc1cccnc1

$$$$

  CDD

  0  0  0  0  0  0            999 V2000
M  END
> <Molecule Name>
CVD-0006225

> <SMILES>
Clc1ccsc1CNC(=O)Nc1cccnc1

$$$$

  CDD

  0  0  0  0  0  0            999 V2000
M  END
> <Molecule Name>
CVD-0006224

> <SMILES>
Clc1cnccc1NC(=O)Nc1cccnc1

$$$$

  CDD

  0  0  0  0  0  0            999 V2000
M  END
> <Molecule Name>
CVD-0006223

> <SMILES>
Clc1cscc1CNC(=O)Nc1cccnc1

$$$$

  CDD

  0  0  0  0  0  0            999 V2000
M  END
> <Molecule Name>
CVD-0006222

> <SMILES>
Clc1sccc1NC(=O)Nc1cccnc1

$$$$

  CDD

  0  0  0  0  0  0            999 V2000
M  END
> <Molecule Name>
CVD-0006221

> <SMILES>
Cl\C=C\CNC(=O)Nc1cccnc1

$$$$

  CDD

  0  0  0  0  0  0            999 V2000
M  END
> <Molecule Name>
CVD-0006220

> <SMILES>
N#Cc1cccnc1

$$$$

  CDD

  0  0  0  0  0  0            999 V2000
M  END
> <Molecule Name>
CVD-0006219

> <SMILES>
CC(=O)C(=O)Nc1cccnc1

$$$$

  CDD

  0  0  0  0  0  0            999 V2000
M  END
> <Molecule Name>
CVD-0006218

> <SMILES>
C=CC(=O)Nc1cccnc1

$$$$

  CDD

  0  0  0  0  0  0            999 V2000
M  END
> <Molecule Name>
CVD-0006217

> <SMILES>
ClCC(=O)Nc1cccnc1

$$$$

  CDD

  0  0  0  0  0  0            999 V2000
M  END
> <Molecule Name>
CVD-0006216

> <SMILES>
NC1=CS(=O)(=O)C1

$$$$

  CDD

  0  0  0  0  0  0            999 V2000
M  END
> <Molecule Name>
CVD-0006215

> <SMILES>
FC1CC1C#N

$$$$

  CDD

  0  0  0  0  0  0            999 V2000
M  END
> <Molecule Name>
CVD-0006214

> <SMILES>
CC1C(C#N)C1S(C)(=O)=O

$$$$

  CDD

  0  0  0  0  0  0            999 V2000
M  END
> <Molecule Name>
CVD-0006213

> <SMILES>
CC1C(C#N)C1C(F)(F)F

$$$$

  CDD

  0  0  0  0  0  0            999 V2000
M  END
> <Molecule Name>
CVD-0006212

> <SMILES>
FC(F)(F)CC#N

$$$$

  CDD

  0  0  0  0  0  0            999 V2000
M  END
> <Molecule Name>
CVD-0006211

> <SMILES>
CS(=O)(=O)CC1CCC(C1)C#N

$$$$

  CDD

  0  0  0  0  0  0            999 V2000
M  END
> <Molecule Name>
CVD-0006210

> <SMILES>
CC(N)CC#N

$$$$

  CDD

  0  0  0  0  0  0            999 V2000
M  END
> <Molecule Name>
CVD-0006209

> <SMILES>
FC1CCCC(CC1)C#N

$$$$

  CDD

  0  0  0  0  0  0            999 V2000
M  END
> <Molecule Name>
CVD-0006208

> <SMILES>
OC1CCC(CCCC1C(F)(F)F)C#N

$$$$

  CDD

  0  0  0  0  0  0            999 V2000
M  END
> <Molecule Name>
CVD-0006207

> <SMILES>
OC(F)(F)C1CC1C#N

$$$$

  CDD

  0  0  0  0  0  0            999 V2000
M  END
> <Molecule Name>
CVD-0006206

> <SMILES>
CS(=O)(=O)C1=C(Cl)CC(C1)C#N

$$$$

  CDD

  0  0  0  0  0  0            999 V2000
M  END
> <Molecule Name>
CVD-0006205

> <SMILES>
CS(=O)(=O)C1=C(Cl)CC(CCN)=C1

$$$$

  CDD

  0  0  0  0  0  0            999 V2000
M  END
> <Molecule Name>
CVD-0006204

> <SMILES>
NCC1C(F)C1C#N

$$$$

  CDD

  0  0  0  0  0  0            999 V2000
M  END
> <Molecule Name>
CVD-0006203

> <SMILES>
FC(C#N)C1CC1

$$$$

  CDD

  0  0  0  0  0  0            999 V2000
M  END
> <Molecule Name>
CVD-0006202

> <SMILES>
CC(F)C#N

$$$$

  CDD

  0  0  0  0  0  0            999 V2000
M  END
> <Molecule Name>
CVD-0006201

> <SMILES>
OC(F)(F)CC#N

$$$$

  CDD

  0  0  0  0  0  0            999 V2000
M  END
> <Molecule Name>
CVD-0006200

> <SMILES>
CC1CC(C1)C#N

$$$$

  CDD

  0  0  0  0  0  0            999 V2000
M  END
> <Molecule Name>
CVD-0006199

> <SMILES>
OC1C(CC1C(F)(F)F)C#N

$$$$

  CDD

  0  0  0  0  0  0            999 V2000
M  END
> <Molecule Name>
CVD-0006198

> <SMILES>
NC(=O)C1C(O)C1C#N

$$$$

  CDD

  0  0  0  0  0  0            999 V2000
M  END
> <Molecule Name>
CVD-0006197

> <SMILES>
OC1C(F)C1CC#N

$$$$

  CDD

  0  0  0  0  0  0            999 V2000
M  END
> <Molecule Name>
CVD-0006196

> <SMILES>
FCC#N

$$$$

  CDD

  0  0  0  0  0  0            999 V2000
M  END
> <Molecule Name>
CVD-0006195

> <SMILES>
NC1C(CO)C1=O

$$$$

  CDD

  0  0  0  0  0  0            999 V2000
M  END
> <Molecule Name>
CVD-0006194

> <SMILES>
CC1C(C#N)C1C(N)=O

$$$$

  CDD

  0  0  0  0  0  0            999 V2000
M  END
> <Molecule Name>
CVD-0006193

> <SMILES>
FC(F)(F)C1C2C(C#N)C12

$$$$

  CDD

  0  0  0  0  0  0            999 V2000
M  END
> <Molecule Name>
CVD-0006192

> <SMILES>
OC1CCC(C#N)C(=O)C1

$$$$

  CDD

  0  0  0  0  0  0            999 V2000
M  END
> <Molecule Name>
CVD-0006191

> <SMILES>
NC1CC1C(F)(F)F

$$$$

  CDD

  0  0  0  0  0  0            999 V2000
M  END
> <Molecule Name>
CVD-0006190

> <SMILES>
FC(F)(F)S1=NN=CC1C#N

$$$$

  CDD

  0  0  0  0  0  0            999 V2000
M  END
> <Molecule Name>
CVD-0006189

> <SMILES>
Clc1cccc(CN2CCN(C2=O)c2nccc3[nH]ncc23)c1

$$$$

  CDD

  0  0  0  0  0  0            999 V2000
M  END
> <Molecule Name>
CVD-0006188

> <SMILES>
Cc1nc(N)sc1CN1CCN(Cc2cccc(Cl)c2)C1=O

$$$$

  CDD

  0  0  0  0  0  0            999 V2000
M  END
> <Molecule Name>
CVD-0006187

> <SMILES>
Cc1nc[nH]c1CN1CCN(Cc2cccc(Cl)c2)C1=O

$$$$

  CDD

  0  0  0  0  0  0            999 V2000
M  END
> <Molecule Name>
CVD-0006186

> <SMILES>
NC(=O)C1CCN(CS1)C(=O)CCl

$$$$

  CDD

  0  0  0  0  0  0            999 V2000
M  END
> <Molecule Name>
CVD-0006185

> <SMILES>
NC(=O)C1CCN(CO1)C(=O)CCl

$$$$

  CDD

  0  0  0  0  0  0            999 V2000
M  END
> <Molecule Name>
CVD-0006184

> <SMILES>
NC(=O)C1CCN(OC1)C(=O)CCl

$$$$

  CDD

  0  0  0  0  0  0            999 V2000
M  END
> <Molecule Name>
CVD-0006183

> <SMILES>
NC(=O)C1CCN(CN1)C(=O)CCl

$$$$

  CDD

  0  0  0  0  0  0            999 V2000
M  END
> <Molecule Name>
CVD-0006182

> <SMILES>
ClCC(=O)N1CCN(CC1)C(=O)N1CCCCCC1

$$$$

  CDD

  0  0  0  0  0  0            999 V2000
M  END
> <Molecule Name>
CVD-0006181

> <SMILES>
CNC(=O)N1CCN(CC1)C(=O)CCl

$$$$

  CDD

  0  0  0  0  0  0            999 V2000
M  END
> <Molecule Name>
CVD-0006180

> <SMILES>
NC(=O)N1CCN(CC1)C(=O)CCl

$$$$

  CDD

  0  0  0  0  0  0            999 V2000
M  END
> <Molecule Name>
CVD-0006179

> <SMILES>
ClCC(=O)N1CCN(CC1)C(=O)N1CCCC1

$$$$

  CDD

  0  0  0  0  0  0            999 V2000
M  END
> <Molecule Name>
CVD-0006178

> <SMILES>
ClCC(=O)N1CCC(CC1)C(=O)N1CSCO1

$$$$

  CDD

  0  0  0  0  0  0            999 V2000
M  END
> <Molecule Name>
CVD-0006177

> <SMILES>
ClCC(=O)N1CCC(CC1)C(=O)N1CONO1

$$$$

  CDD

  0  0  0  0  0  0            999 V2000
M  END
> <Molecule Name>
CVD-0006176

> <SMILES>
ClCC(=O)N1CCC(CC1)C(=O)N1CNOC1

$$$$

  CDD

  0  0  0  0  0  0            999 V2000
M  END
> <Molecule Name>
CVD-0006175

> <SMILES>
ClCC(=O)N1CCC(CC1)C(=O)N1CNCO1

$$$$

  CDD

  0  0  0  0  0  0            999 V2000
M  END
> <Molecule Name>
CVD-0006174

> <SMILES>
ClCC(=O)N1CCC(CC1)C(=O)N1CCNO1

$$$$

  CDD

  0  0  0  0  0  0            999 V2000
M  END
> <Molecule Name>
CVD-0006173

> <SMILES>
ClCC(=O)N1CCC(CC1)C(=O)N1CCSC1

$$$$

  CDD

  0  0  0  0  0  0            999 V2000
M  END
> <Molecule Name>
CVD-0006172

> <SMILES>
ClCC(=O)N1CCC(CC1)C(=O)N1CCOC1

$$$$

  CDD

  0  0  0  0  0  0            999 V2000
M  END
> <Molecule Name>
CVD-0006171

> <SMILES>
ClCC(=O)N1CCC(CC1)C(=O)N1CCCO1

$$$$

  CDD

  0  0  0  0  0  0            999 V2000
M  END
> <Molecule Name>
CVD-0006170

> <SMILES>
ClCC(=O)N1CCC(CC1)C(=O)N1CCNC1

$$$$

  CDD

  0  0  0  0  0  0            999 V2000
M  END
> <Molecule Name>
CVD-0006169

> <SMILES>
ClCC(=O)N1CCN(CC1)C(=O)N1COC=C1

$$$$

  CDD

  0  0  0  0  0  0            999 V2000
M  END
> <Molecule Name>
CVD-0006168

> <SMILES>
ClCC(=O)N1CCN(CC1)C(=O)N1CSC=C1

$$$$

  CDD

  0  0  0  0  0  0            999 V2000
M  END
> <Molecule Name>
CVD-0006167

> <SMILES>
ClCC(=O)N1CCN(CC1)C(=O)n1cccc1

$$$$

  CDD

  0  0  0  0  0  0            999 V2000
M  END
> <Molecule Name>
CVD-0006166

> <SMILES>
ClCC(=O)N1CCC(CC1)C(=O)N1CCCCCC1

$$$$

  CDD

  0  0  0  0  0  0            999 V2000
M  END
> <Molecule Name>
CVD-0006165

> <SMILES>
CC1CCCN(C1)C(=O)C1CCN(CC1)C(=O)CCl

$$$$

  CDD

  0  0  0  0  0  0            999 V2000
M  END
> <Molecule Name>
CVD-0006164

> <SMILES>
ClCC(=O)N1CCC(CC1)C(=O)N1CCCC1

$$$$

  CDD

  0  0  0  0  0  0            999 V2000
M  END
> <Molecule Name>
CVD-0006163

> <SMILES>
CNC(=O)C1CCN(CC1)C(=O)CCl

$$$$

  CDD

  0  0  0  0  0  0            999 V2000
M  END
> <Molecule Name>
CVD-0006162

> <SMILES>
NC(=O)C1CCN(CC1)C(=O)CCl

$$$$

  CDD

  0  0  0  0  0  0            999 V2000
M  END
> <Molecule Name>
CVD-0006161

> <SMILES>
CN(C)CCCNC(=O)C(\NC(=O)c1ccc(C)cc1)=C\c1ccc(o1)-c1cccc(c1)[N+]([O-])=O

$$$$

  CDD

  0  0  0  0  0  0            999 V2000
M  END
> <Molecule Name>
CVD-0006160

> <SMILES>
CC(C)N(C(=O)CCl)c1ccccc1

$$$$

  CDD

  0  0  0  0  0  0            999 V2000
M  END
> <Molecule Name>
CVD-0006159

> <SMILES>
CN(C1CCCCC1)C(=O)CCl

$$$$

  CDD

  0  0  0  0  0  0            999 V2000
M  END
> <Molecule Name>
CVD-0006158

> <SMILES>
CN(C(=O)CCl)c1ccccc1

$$$$

  CDD

  0  0  0  0  0  0            999 V2000
M  END
> <Molecule Name>
CVD-0006157

> <SMILES>
CCN(C(=O)CCl)c1ccccc1

$$$$

  CDD

  0  0  0  0  0  0            999 V2000
M  END
> <Molecule Name>
CVD-0006156

> <SMILES>
ClCC(=O)N1CCCCCCC1

$$$$

  CDD

  0  0  0  0  0  0            999 V2000
M  END
> <Molecule Name>
CVD-0006155

> <SMILES>
ClCC(=O)N1CCCCCC1

$$$$

  CDD

  0  0  0  0  0  0            999 V2000
M  END
> <Molecule Name>
CVD-0006154

> <SMILES>
CC1CCN(CC1)C(=O)CCl

$$$$

  CDD

  0  0  0  0  0  0            999 V2000
M  END
> <Molecule Name>
CVD-0006153

> <SMILES>
ClCC(=O)N1CCCCC1

$$$$

  CDD

  0  0  0  0  0  0            999 V2000
M  END
> <Molecule Name>
CVD-0006152

> <SMILES>
CCC1OCCN1C(=O)CCl

$$$$

  CDD

  0  0  0  0  0  0            999 V2000
M  END
> <Molecule Name>
CVD-0006151

> <SMILES>
CC1CN(C(C)O1)C(=O)CCl

$$$$

  CDD

  0  0  0  0  0  0            999 V2000
M  END
> <Molecule Name>
CVD-0006150

> <SMILES>
OC1(CC2CCC1C2)C#N

$$$$

  CDD

  0  0  0  0  0  0            999 V2000
M  END
> <Molecule Name>
CVD-0006149

> <SMILES>
NC(C#N)C1CCOC1

$$$$

  CDD

  0  0  0  0  0  0            999 V2000
M  END
> <Molecule Name>
CVD-0006148

> <SMILES>
OC1(CC#N)CCOCC1

$$$$

  CDD

  0  0  0  0  0  0            999 V2000
M  END
> <Molecule Name>
CVD-0006147

> <SMILES>
N#CC12CC3CC(CC(C3)C1)C2

$$$$

  CDD

  0  0  0  0  0  0            999 V2000
M  END
> <Molecule Name>
CVD-0006146

> <SMILES>
CC(C)(C#N)N1CCOCC1

$$$$

  CDD

  0  0  0  0  0  0            999 V2000
M  END
> <Molecule Name>
CVD-0006145

> <SMILES>
CC(NCc1ccc(cc1)C#N)C1CCOC1

$$$$

  CDD

  0  0  0  0  0  0            999 V2000
M  END
> <Molecule Name>
CVD-0006144

> <SMILES>
CC(C)[C@H](NCC#N)C(=O)N1CCOCC1

$$$$

  CDD

  0  0  0  0  0  0            999 V2000
M  END
> <Molecule Name>
CVD-0006143

> <SMILES>
O=S(=O)(N(CC#C)CC#N)c1ccccc1

$$$$

  CDD

  0  0  0  0  0  0            999 V2000
M  END
> <Molecule Name>
CVD-0006142

> <SMILES>
N[C@H](C#N)C1CCOCC1

$$$$

  CDD

  0  0  0  0  0  0            999 V2000
M  END
> <Molecule Name>
CVD-0006141

> <SMILES>
CC(C)(OCc1ccccc1)C#N

$$$$

  CDD

  0  0  0  0  0  0            999 V2000
M  END
> <Molecule Name>
CVD-0006140

> <SMILES>
CN(Cc1csc(C)n1)C(=O)NCC#N

$$$$

  CDD

  0  0  0  0  0  0            999 V2000
M  END
> <Molecule Name>
CVD-0006139

> <SMILES>
CC1CCCCN1C(=O)CCl

$$$$

  CDD

  0  0  0  0  0  0            999 V2000
M  END
> <Molecule Name>
CVD-0006138

> <SMILES>
CN(C)Cc1ccc(CNC(=O)CCl)cc1

$$$$

  CDD

  0  0  0  0  0  0            999 V2000
M  END
> <Molecule Name>
CVD-0006137

> <SMILES>
ClCC(=O)NC1CC1

$$$$

  CDD

  0  0  0  0  0  0            999 V2000
M  END
> <Molecule Name>
CVD-0006136

> <SMILES>
ClCC(=O)NC(=O)NC1CC1

$$$$

  CDD

  0  0  0  0  0  0            999 V2000
M  END
> <Molecule Name>
CVD-0006135

> <SMILES>
ClCC(=O)NCc1ccc(cc1)C#N

$$$$

  CDD

  0  0  0  0  0  0            999 V2000
M  END
> <Molecule Name>
CVD-0006134

> <SMILES>
CC(=O)C(Cc1ccccc1)NC(=O)CCl

$$$$

  CDD

  0  0  0  0  0  0            999 V2000
M  END
> <Molecule Name>
CVD-0006133

> <SMILES>
ClCC(=O)N1CCOCC1

$$$$

  CDD

  0  0  0  0  0  0            999 V2000
M  END
> <Molecule Name>
CVD-0006132

> <SMILES>
COC(=O)C1(CCCCC1)NC(=O)CCl

$$$$

  CDD

  0  0  0  0  0  0            999 V2000
M  END
> <Molecule Name>
CVD-0006131

> <SMILES>
CC(Cl)C(=O)NC(=O)NC1CC1

$$$$

  CDD

  0  0  0  0  0  0            999 V2000
M  END
> <Molecule Name>
CVD-0006130

> <SMILES>
CC(NC(=O)NC(=O)CCl)C1CC2CCC1C2

$$$$

  CDD

  0  0  0  0  0  0            999 V2000
M  END
> <Molecule Name>
CVD-0006129

> <SMILES>
ClCC(=O)NC1(CCC1)C#N

$$$$

  CDD

  0  0  0  0  0  0            999 V2000
M  END
> <Molecule Name>
CVD-0006128

> <SMILES>
CC(NC(=O)CCl)C1CC1

$$$$

  CDD

  0  0  0  0  0  0            999 V2000
M  END
> <Molecule Name>
CVD-0006127

> <SMILES>
ClCC(=O)NC1(CCCCCC1)C#N

$$$$

  CDD

  0  0  0  0  0  0            999 V2000
M  END
> <Molecule Name>
CVD-0006126

> <SMILES>
ClCC(=O)NC1(CCCCC1)C#N

$$$$

  CDD

  0  0  0  0  0  0            999 V2000
M  END
> <Molecule Name>
CVD-0006125

> <SMILES>
ClCC(=O)NOCc1ccccc1

$$$$

  CDD

  0  0  0  0  0  0            999 V2000
M  END
> <Molecule Name>
CVD-0006124

> <SMILES>
ClCC(=O)N1CCCC2CCCCC12

$$$$

  CDD

  0  0  0  0  0  0            999 V2000
M  END
> <Molecule Name>
CVD-0006123

> <SMILES>
Cc1cc(CNC(=O)CCl)cc(C)c1O

$$$$

  CDD

  0  0  0  0  0  0            999 V2000
M  END
> <Molecule Name>
CVD-0006122

> <SMILES>
CC(Cl)C(=O)Nc1ncnc2[nH]cnc12

$$$$

  CDD

  0  0  0  0  0  0            999 V2000
M  END
> <Molecule Name>
CVD-0006121

> <SMILES>
CC(Cl)C(=O)NC1CC1

$$$$

  CDD

  0  0  0  0  0  0            999 V2000
M  END
> <Molecule Name>
CVD-0006120

> <SMILES>
CC(Cl)C(=O)NC1(CCCCC1)C#N

$$$$

  CDD

  0  0  0  0  0  0            999 V2000
M  END
> <Molecule Name>
CVD-0006119

> <SMILES>
CC(Cl)C(=O)NC(C)C1CC2CCC1C2

$$$$

  CDD

  0  0  0  0  0  0            999 V2000
M  END
> <Molecule Name>
CVD-0006118

> <SMILES>
CC(Cl)C(=O)N1CCOCC1

$$$$

  CDD

  0  0  0  0  0  0            999 V2000
M  END
> <Molecule Name>
CVD-0006117

> <SMILES>
ClCC(=O)NC(=O)OCc1ccccc1

$$$$

  CDD

  0  0  0  0  0  0            999 V2000
M  END
> <Molecule Name>
CVD-0006116

> <SMILES>
CC(Cl)C(=O)NC(=O)NC12CC3CC(CC(C3)C1)C2

$$$$

  CDD

  0  0  0  0  0  0            999 V2000
M  END
> <Molecule Name>
CVD-0006115

> <SMILES>
CC(Cl)C(=O)NC12CC3CC(CC(C3)C1)C2

$$$$

  CDD

  0  0  0  0  0  0            999 V2000
M  END
> <Molecule Name>
CVD-0006114

> <SMILES>
ClCC(=O)NC(=O)NC12CC3CC(CC(C3)C1)C2

$$$$

  CDD

  0  0  0  0  0  0            999 V2000
M  END
> <Molecule Name>
CVD-0006113

> <SMILES>
ClCC(=O)NC12CC3CC(CC(C3)C1)C2

$$$$

  CDD

  0  0  0  0  0  0            999 V2000
M  END
> <Molecule Name>
CVD-0006112

> <SMILES>
COc1ccc(OC)c(c1)S(=O)(=O)N1CCN(CC1)C(=O)CCl

$$$$

  CDD

  0  0  0  0  0  0            999 V2000
M  END
> <Molecule Name>
CVD-0006111

> <SMILES>
ClCC(=O)N1CCN(Cc2ccc(Cl)cc2)CC1

$$$$

  CDD

  0  0  0  0  0  0            999 V2000
M  END
> <Molecule Name>
CVD-0006110

> <SMILES>
ClCC(=O)N1CCN(Cc2ccco2)CC1

$$$$

  CDD

  0  0  0  0  0  0            999 V2000
M  END
> <Molecule Name>
CVD-0006109

> <SMILES>
ClCC(=O)N1CCN(CC1)S(=O)(=O)\C=C\c1ccccc1

$$$$

  CDD

  0  0  0  0  0  0            999 V2000
M  END
> <Molecule Name>
CVD-0006108

> <SMILES>
ClCC(=O)N1CCCc2cc(ccc12)S(=O)(=O)N1CCCC1

$$$$

  CDD

  0  0  0  0  0  0            999 V2000
M  END
> <Molecule Name>
CVD-0006107

> <SMILES>
ClCC(=O)N1CCC(CC1)c1nc2ccccc2s1

$$$$

  CDD

  0  0  0  0  0  0            999 V2000
M  END
> <Molecule Name>
CVD-0006106

> <SMILES>
ClCC(=O)N1CCN(Cc2ccccc2)CC1

$$$$

  CDD

  0  0  0  0  0  0            999 V2000
M  END
> <Molecule Name>
CVD-0006105

> <SMILES>
ClCC(=O)N1CCN(CC1)S(=O)(=O)Cc1ccccc1

$$$$

  CDD

  0  0  0  0  0  0            999 V2000
M  END
> <Molecule Name>
CVD-0006104

> <SMILES>
CCOc1ccc(cc1)S(=O)(=O)N1CCN(CC1)C(=O)CCl

$$$$

  CDD

  0  0  0  0  0  0            999 V2000
M  END
> <Molecule Name>
CVD-0006103

> <SMILES>
Cc1ccc(CN2CCCN(CC2)C(=O)CCl)cc1

$$$$

  CDD

  0  0  0  0  0  0            999 V2000
M  END
> <Molecule Name>
CVD-0006102

> <SMILES>
Cc1ccccc1CN1CCN(CC1)C(=O)CCl

$$$$

  CDD

  0  0  0  0  0  0            999 V2000
M  END
> <Molecule Name>
CVD-0006101

> <SMILES>
COc1ccc(cc1OC)S(=O)(=O)N1CCN(CC1)C(=O)CCl

$$$$

  CDD

  0  0  0  0  0  0            999 V2000
M  END
> <Molecule Name>
CVD-0006100

> <SMILES>
ClCC(=O)N1CCN(Cc2ccc3OCCc3c2)CC1

$$$$

  CDD

  0  0  0  0  0  0            999 V2000
M  END
> <Molecule Name>
CVD-0006099

> <SMILES>
COc1ccc(cc1)S(=O)(=O)N1CCN(CC1)C(=O)CCl

$$$$

  CDD

  0  0  0  0  0  0            999 V2000
M  END
> <Molecule Name>
CVD-0006098

> <SMILES>
ClCC(=O)N1CCN(Cc2ccc3OCCOc3c2)CC1

$$$$

  CDD

  0  0  0  0  0  0            999 V2000
M  END
> <Molecule Name>
CVD-0006097

> <SMILES>
Cc1cccc(c1)N(C1CS(=O)(=O)C=C1)C(=O)CCl

$$$$

  CDD

  0  0  0  0  0  0            999 V2000
M  END
> <Molecule Name>
CVD-0006096

> <SMILES>
ClCC(=O)N1CCN(Cc2ccc3OCOc3c2)CC1

$$$$

  CDD

  0  0  0  0  0  0            999 V2000
M  END
> <Molecule Name>
CVD-0006095

> <SMILES>
CC(=O)c1ccc(cc1)S(=O)(=O)N1CCN(CC1)C(=O)CCl

$$$$

  CDD

  0  0  0  0  0  0            999 V2000
M  END
> <Molecule Name>
CVD-0006094

> <SMILES>
ClCC(=O)N1CCN(CC1)S(=O)(=O)c1ccccc1Cl

$$$$

  CDD

  0  0  0  0  0  0            999 V2000
M  END
> <Molecule Name>
CVD-0006093

> <SMILES>
CC(=O)c1cccc(c1)S(=O)(=O)N1CCN(CC1)C(=O)CCl

$$$$

  CDD

  0  0  0  0  0  0            999 V2000
M  END
> <Molecule Name>
CVD-0006092

> <SMILES>
Fc1ccc(cc1Cl)S(=O)(=O)N1CCN(CC1)C(=O)CCl

$$$$

  CDD

  0  0  0  0  0  0            999 V2000
M  END
> <Molecule Name>
CVD-0006091

> <SMILES>
ClCC(=O)N1CCN(CC1)S(=O)(=O)c1ccccc1

$$$$

  CDD

  0  0  0  0  0  0            999 V2000
M  END
> <Molecule Name>
CVD-0006090

> <SMILES>
Cc1ccc(cc1C)S(=O)(=O)N1CCN(CC1)C(=O)CCl

$$$$

  CDD

  0  0  0  0  0  0            999 V2000
M  END
> <Molecule Name>
CVD-0006089

> <SMILES>
ClCC(=O)N1CCN(CC1)S(=O)(=O)c1ccc2CCCc2c1

$$$$

  CDD

  0  0  0  0  0  0            999 V2000
M  END
> <Molecule Name>
CVD-0006088

> <SMILES>
[O-][N+](=O)c1ccc(cc1)S(=O)(=O)N1CCN(CC1)C(=O)CCl

$$$$

  CDD

  0  0  0  0  0  0            999 V2000
M  END
> <Molecule Name>
CVD-0006087

> <SMILES>
ClCC(=O)N1CCN(CC1)S(=O)(=O)c1ccc2CCCCc2c1

$$$$

  CDD

  0  0  0  0  0  0            999 V2000
M  END
> <Molecule Name>
CVD-0006086

> <SMILES>
[O-][N+](=O)c1cccc(c1)S(=O)(=O)N1CCN(CC1)C(=O)CCl

$$$$

  CDD

  0  0  0  0  0  0            999 V2000
M  END
> <Molecule Name>
CVD-0006085

> <SMILES>
ClCC(=O)N1CCN(CC1)S(=O)(=O)c1ccc2ccccc2c1

$$$$

  CDD

  0  0  0  0  0  0            999 V2000
M  END
> <Molecule Name>
CVD-0006084

> <SMILES>
ClCC(=O)N1CCN(CC1)S(=O)(=O)c1ccc2OCCCOc2c1

$$$$

  CDD

  0  0  0  0  0  0            999 V2000
M  END
> <Molecule Name>
CVD-0006083

> <SMILES>
ClCC(=O)N1CCN(CC1)S(=O)(=O)c1ccc2OCCOc2c1

$$$$

  CDD

  0  0  0  0  0  0            999 V2000
M  END
> <Molecule Name>
CVD-0006082

> <SMILES>
CC(O)C1N=CNC1=O

$$$$

  CDD

  0  0  0  0  0  0            999 V2000
M  END
> <Molecule Name>
CVD-0006081

> <SMILES>
OC1C(CN1C(=O)CCl)C#N

$$$$

  CDD

  0  0  0  0  0  0            999 V2000
M  END
> <Molecule Name>
CVD-0006080

> <SMILES>
NC1=CN(C(=O)CCl)C(=O)C1

$$$$

  CDD

  0  0  0  0  0  0            999 V2000
M  END
> <Molecule Name>
CVD-0006079

> <SMILES>
CSC1CC1C#N

$$$$

  CDD

  0  0  0  0  0  0            999 V2000
M  END
> <Molecule Name>
CVD-0006078

> <SMILES>
COC1CC1C#N

$$$$

  CDD

  0  0  0  0  0  0            999 V2000
M  END
> <Molecule Name>
CVD-0006077

> <SMILES>
ClCC(=O)N1CON=C1

$$$$

  CDD

  0  0  0  0  0  0            999 V2000
M  END
> <Molecule Name>
CVD-0006076

> <SMILES>
O=C1NCO1

$$$$

  CDD

  0  0  0  0  0  0            999 V2000
M  END
> <Molecule Name>
CVD-0006075

> <SMILES>
NCC(=O)N1CNC1

$$$$

  CDD

  0  0  0  0  0  0            999 V2000
M  END
> <Molecule Name>
CVD-0006074

> <SMILES>
NC(=O)C(F)C#N

$$$$

  CDD

  0  0  0  0  0  0            999 V2000
M  END
> <Molecule Name>
CVD-0006073

> <SMILES>
CC1C(O)C1C#N

$$$$

  CDD

  0  0  0  0  0  0            999 V2000
M  END
> <Molecule Name>
CVD-0006072

> <SMILES>
O=S1(=O)CC(NCc2ccccc2)N=C1

$$$$

  CDD

  0  0  0  0  0  0            999 V2000
M  END
> <Molecule Name>
CVD-0006071

> <SMILES>
O=S1(=O)CC(NCc2ccccc2)C=N1

$$$$

  CDD

  0  0  0  0  0  0            999 V2000
M  END
> <Molecule Name>
CVD-0006070

> <SMILES>
O=S1(=O)CC(Nc2ccccc2)N=C1

$$$$

  CDD

  0  0  0  0  0  0            999 V2000
M  END
> <Molecule Name>
CVD-0006069

> <SMILES>
O=S1(=O)CC(Nc2ccccc2)C=N1

$$$$

  CDD

  0  0  0  0  0  0            999 V2000
M  END
> <Molecule Name>
CVD-0006068

> <SMILES>
O=S1(=O)CC(N=C1)c1ccccc1

$$$$

  CDD

  0  0  0  0  0  0            999 V2000
M  END
> <Molecule Name>
CVD-0006067

> <SMILES>
O=S1(=O)CC(C=N1)c1ccccc1

$$$$

  CDD

  0  0  0  0  0  0            999 V2000
M  END
> <Molecule Name>
CVD-0006066

> <SMILES>
Cc1cccc(NC2CS(=O)(=O)C=N2)c1

$$$$

  CDD

  0  0  0  0  0  0            999 V2000
M  END
> <Molecule Name>
CVD-0006065

> <SMILES>
Cc1cccc(NC2CS(=O)(=O)N=C2)c1

$$$$

  CDD

  0  0  0  0  0  0            999 V2000
M  END
> <Molecule Name>
CVD-0006064

> <SMILES>
O=C(CC1CS(=O)(=O)C=N1)NC1CCOc2ccccc12

$$$$

  CDD

  0  0  0  0  0  0            999 V2000
M  END
> <Molecule Name>
CVD-0006063

> <SMILES>
O=C(CC1CS(=O)(=O)N=C1)NC1CCOc2ccccc12

$$$$

  CDD

  0  0  0  0  0  0            999 V2000
M  END
> <Molecule Name>
CVD-0006062

> <SMILES>
Clc1ccccc1CNC(=O)CC1CS(=O)(=O)C=N1

$$$$

  CDD

  0  0  0  0  0  0            999 V2000
M  END
> <Molecule Name>
CVD-0006061

> <SMILES>
Clc1ccccc1CNC(=O)CC1CS(=O)(=O)N=C1

$$$$

  CDD

  0  0  0  0  0  0            999 V2000
M  END
> <Molecule Name>
CVD-0006060

> <SMILES>
Clc1cccc(NC2CS(=O)(=O)C=N2)c1

$$$$

  CDD

  0  0  0  0  0  0            999 V2000
M  END
> <Molecule Name>
CVD-0006059

> <SMILES>
Clc1cccc(NC2CS(=O)(=O)N=C2)c1

$$$$

  CDD

  0  0  0  0  0  0            999 V2000
M  END
> <Molecule Name>
CVD-0006058

> <SMILES>
Fc1cccc(CNC(=O)CC2CS(=O)(=O)C=N2)c1

$$$$

  CDD

  0  0  0  0  0  0            999 V2000
M  END
> <Molecule Name>
CVD-0006057

> <SMILES>
Fc1cccc(CNC(=O)CC2CS(=O)(=O)N=C2)c1

$$$$

  CDD

  0  0  0  0  0  0            999 V2000
M  END
> <Molecule Name>
CVD-0006056

> <SMILES>
Cc1ccc(cc1C)N(C1CS(=O)(=O)N=C1)C(=O)CCl

$$$$

  CDD

  0  0  0  0  0  0            999 V2000
M  END
> <Molecule Name>
CVD-0006055

> <SMILES>
Cc1ccc(cc1C)N(C1CS(=O)(=O)C=N1)C(=O)CCl

$$$$

  CDD

  0  0  0  0  0  0            999 V2000
M  END
> <Molecule Name>
CVD-0006054

> <SMILES>
O=S1(=O)CC(NCc2ccccc2)C=C1

$$$$

  CDD

  0  0  0  0  0  0            999 V2000
M  END
> <Molecule Name>
CVD-0006053

> <SMILES>
Cc1ccc(\C=C\S(=O)(=O)Nc2ccc(cn2)C#N)cc1

$$$$

  CDD

  0  0  0  0  0  0            999 V2000
M  END
> <Molecule Name>
CVD-0006052

> <SMILES>
O=S1(=O)CC(Nc2ccccc2)C=C1

$$$$

  CDD

  0  0  0  0  0  0            999 V2000
M  END
> <Molecule Name>
CVD-0006051

> <SMILES>
Clc1ccc(cc1)C1CCN(CC1)C(=O)CCS(=O)(=O)C=C

$$$$

  CDD

  0  0  0  0  0  0            999 V2000
M  END
> <Molecule Name>
CVD-0006050

> <SMILES>
O=S1(=O)CC(C=C1)c1ccccc1

$$$$

  CDD

  0  0  0  0  0  0            999 V2000
M  END
> <Molecule Name>
CVD-0006049

> <SMILES>
Clc1ccc(\C=C\S(=O)(=O)Nc2ccc(cn2)C#N)cc1

$$$$

  CDD

  0  0  0  0  0  0            999 V2000
M  END
> <Molecule Name>
CVD-0006048

> <SMILES>
Cc1cccc(NC2CS(=O)(=O)C=C2)c1

$$$$

  CDD

  0  0  0  0  0  0            999 V2000
M  END
> <Molecule Name>
CVD-0006047

> <SMILES>
O=C(CC1CS(=O)(=O)C=C1)NC1CCOc2ccccc12

$$$$

  CDD

  0  0  0  0  0  0            999 V2000
M  END
> <Molecule Name>
CVD-0006046

> <SMILES>
Clc1ccccc1CNC(=O)CC1CS(=O)(=O)C=C1

$$$$

  CDD

  0  0  0  0  0  0            999 V2000
M  END
> <Molecule Name>
CVD-0006045

> <SMILES>
Clc1cccc(NC2CS(=O)(=O)C=C2)c1

$$$$

  CDD

  0  0  0  0  0  0            999 V2000
M  END
> <Molecule Name>
CVD-0006044

> <SMILES>
Fc1cccc(CNC(=O)CC2CS(=O)(=O)C=C2)c1

$$$$

  CDD

  0  0  0  0  0  0            999 V2000
M  END
> <Molecule Name>
CVD-0006043

> <SMILES>
Cc1ccc(cc1C)N(C1CS(=O)(=O)C=C1)C(=O)CCl

$$$$

  CDD

  0  0  0  0  0  0            999 V2000
M  END
> <Molecule Name>
CVD-0006042

> <SMILES>
OCC1C(F)C1C#N

$$$$

  CDD

  0  0  0  0  0  0            999 V2000
M  END
> <Molecule Name>
CVD-0006041

> <SMILES>
Clc1c(C#N)c1=O

$$$$

  CDD

  0  0  0  0  0  0            999 V2000
M  END
> <Molecule Name>
CVD-0006040

> <SMILES>
OCC1=C(S1)C#N

$$$$

  CDD

  0  0  0  0  0  0            999 V2000
M  END
> <Molecule Name>
CVD-0006039

> <SMILES>
N#Cc1cs[nH]1

$$$$

  CDD

  0  0  0  0  0  0            999 V2000
M  END
> <Molecule Name>
CVD-0006038

> <SMILES>
N#CC1OCO1

$$$$

  CDD

  0  0  0  0  0  0            999 V2000
M  END
> <Molecule Name>
CVD-0006037

> <SMILES>
N#CC1ONO1

$$$$

  CDD

  0  0  0  0  0  0            999 V2000
M  END
> <Molecule Name>
CVD-0006036

> <SMILES>
N#CC1CNO1

$$$$

  CDD

  0  0  0  0  0  0            999 V2000
M  END
> <Molecule Name>
CVD-0006035

> <SMILES>
N#CC1CNC1

$$$$

  CDD

  0  0  0  0  0  0            999 V2000
M  END
> <Molecule Name>
CVD-0006034

> <SMILES>
N#CC1CN=C1

$$$$

  CDD

  0  0  0  0  0  0            999 V2000
M  END
> <Molecule Name>
CVD-0006033

> <SMILES>
N#CC1CCC1

$$$$

  CDD

  0  0  0  0  0  0            999 V2000
M  END
> <Molecule Name>
CVD-0006032

> <SMILES>
CNC1CC1C#N

$$$$

  CDD

  0  0  0  0  0  0            999 V2000
M  END
> <Molecule Name>
CVD-0006031

> <SMILES>
OC1CC1C#N

$$$$

  CDD

  0  0  0  0  0  0            999 V2000
M  END
> <Molecule Name>
CVD-0006030

> <SMILES>
N#CC1C2CC12

$$$$

  CDD

  0  0  0  0  0  0            999 V2000
M  END
> <Molecule Name>
CVD-0006029

> <SMILES>
CC1C(C)C1C#N

$$$$

  CDD

  0  0  0  0  0  0            999 V2000
M  END
> <Molecule Name>
CVD-0006028

> <SMILES>
CC1CC1C#N

$$$$

  CDD

  0  0  0  0  0  0            999 V2000
M  END
> <Molecule Name>
CVD-0006027

> <SMILES>
FC(F)(F)c1ccnc(NC(=O)C(=O)N2CC(C#N)=c3ccccc3=C2)c1

$$$$

  CDD

  0  0  0  0  0  0            999 V2000
M  END
> <Molecule Name>
CVD-0006026

> <SMILES>
Nc1ncc(c(n1)C#N)S(=O)(=O)C1CCN(CC1)C(=O)CCl

$$$$

  CDD

  0  0  0  0  0  0            999 V2000
M  END
> <Molecule Name>
CVD-0006025

> <SMILES>
CC(C#N)C(C(=O)N1CCN(CC1)C(=O)CCl)S(N)(=O)=O

$$$$

  CDD

  0  0  0  0  0  0            999 V2000
M  END
> <Molecule Name>
CVD-0006024

> <SMILES>
NC(=O)c1ccncc1NC(=O)C(=O)C1CCCC(C1)C#N

$$$$

  CDD

  0  0  0  0  0  0            999 V2000
M  END
> <Molecule Name>
CVD-0006023

> <SMILES>
NS(=O)(=O)c1ccc(cc1)N1CCN(CC1)C(=O)C(=O)N1CCCC(C1)C#N

$$$$

  CDD

  0  0  0  0  0  0            999 V2000
M  END
> <Molecule Name>
CVD-0006022

> <SMILES>
NC(=O)c1cc(ccc1S(N)(=O)=O)-c1cnccc1C#N

$$$$

  CDD

  0  0  0  0  0  0            999 V2000
M  END
> <Molecule Name>
CVD-0006021

> <SMILES>
NS(=O)(=O)c1ccc(NC2CC(CN(C2)C(=O)CCl)C#N)cc1

$$$$

  CDD

  0  0  0  0  0  0            999 V2000
M  END
> <Molecule Name>
CVD-0006020

> <SMILES>
C[C@H](C1CCN(CC1)C(=O)CCl)C(=O)Nc1cnccc1C#N

$$$$

  CDD

  0  0  0  0  0  0            999 V2000
M  END
> <Molecule Name>
CVD-0006019

> <SMILES>
NS(=O)(=O)c1cccc(c1)C(=O)N1CCC(CNC(=O)CCl)CC1

$$$$

  CDD

  0  0  0  0  0  0            999 V2000
M  END
> <Molecule Name>
CVD-0006018

> <SMILES>
ClCC(=O)N1CN(C(=O)C(=O)N2CCC(CC#N)CC2)c2ccccc12

$$$$

  CDD

  0  0  0  0  0  0            999 V2000
M  END
> <Molecule Name>
CVD-0006017

> <SMILES>
ClCC(=O)N1CNC(=O)C1

$$$$

  CDD

  0  0  0  0  0  0            999 V2000
M  END
> <Molecule Name>
CVD-0006016

> <SMILES>
NS(=O)(=O)CC#N

$$$$

  CDD

  0  0  0  0  0  0            999 V2000
M  END
> <Molecule Name>
CVD-0006015

> <SMILES>
ClCC(=O)N1CN=CC=C1

$$$$

  CDD

  0  0  0  0  0  0            999 V2000
M  END
> <Molecule Name>
CVD-0006014

> <SMILES>
ClCC(=O)N1CCC(C1)C#N

$$$$

  CDD

  0  0  0  0  0  0            999 V2000
M  END
> <Molecule Name>
CVD-0006013

> <SMILES>
C=CC(=O)N1CSC1

$$$$

  CDD

  0  0  0  0  0  0            999 V2000
M  END
> <Molecule Name>
CVD-0006012

> <SMILES>
O=C(CC#N)NC1CC1

$$$$

  CDD

  0  0  0  0  0  0            999 V2000
M  END
> <Molecule Name>
CVD-0006011

> <SMILES>
N#CC1SC=CC=C1

$$$$

  CDD

  0  0  0  0  0  0            999 V2000
M  END
> <Molecule Name>
CVD-0006010

> <SMILES>
ClCC(=O)N1CCCSCC1

$$$$

  CDD

  0  0  0  0  0  0            999 V2000
M  END
> <Molecule Name>
CVD-0006009

> <SMILES>
O=C1CC(CN1)C#N

$$$$

  CDD

  0  0  0  0  0  0            999 V2000
M  END
> <Molecule Name>
CVD-0006008

> <SMILES>
ClCC(=O)NC1CCCCC1

$$$$

  CDD

  0  0  0  0  0  0            999 V2000
M  END
> <Molecule Name>
CVD-0006007

> <SMILES>
NC(=O)CC#N

$$$$

  CDD

  0  0  0  0  0  0            999 V2000
M  END
> <Molecule Name>
CVD-0006006

> <SMILES>
ClCC(=O)N1COC=C1

$$$$

  CDD

  0  0  0  0  0  0            999 V2000
M  END
> <Molecule Name>
CVD-0006005

> <SMILES>
ClCC(=O)N1OCC=C1

$$$$

  CDD

  0  0  0  0  0  0            999 V2000
M  END
> <Molecule Name>
CVD-0006004

> <SMILES>
ClCC(=O)N1CSC=C1

$$$$

  CDD

  0  0  0  0  0  0            999 V2000
M  END
> <Molecule Name>
CVD-0006003

> <SMILES>
ClCC(=O)N1CCCO1

$$$$

  CDD

  0  0  0  0  0  0            999 V2000
M  END
> <Molecule Name>
CVD-0006002

> <SMILES>
ClCC(=O)N1CSCO1

$$$$

  CDD

  0  0  0  0  0  0            999 V2000
M  END
> <Molecule Name>
CVD-0006001

> <SMILES>
ClCC(=O)N1CCSC1

$$$$

  CDD

  0  0  0  0  0  0            999 V2000
M  END
> <Molecule Name>
CVD-0006000

> <SMILES>
ClCC(=O)N1CCCC1

$$$$

  CDD

  0  0  0  0  0  0            999 V2000
M  END
> <Molecule Name>
CVD-0005999

> <SMILES>
ClCC(=O)N1CCC=C1

$$$$

  CDD

  0  0  0  0  0  0            999 V2000
M  END
> <Molecule Name>
CVD-0005998

> <SMILES>
ClCC(=O)N1C=CCC1=O

$$$$

  CDD

  0  0  0  0  0  0            999 V2000
M  END
> <Molecule Name>
CVD-0005997

> <SMILES>
CCC1N=CNC1=O

$$$$

  CDD

  0  0  0  0  0  0            999 V2000
M  END
> <Molecule Name>
CVD-0005996

> <SMILES>
CC1N=CNC1=O

$$$$

  CDD

  0  0  0  0  0  0            999 V2000
M  END
> <Molecule Name>
CVD-0005995

> <SMILES>
CN1C(=O)NC1=O

$$$$

  CDD

  0  0  0  0  0  0            999 V2000
M  END
> <Molecule Name>
CVD-0005994

> <SMILES>
CN1C(=O)N(C)C1=O

$$$$

  CDD

  0  0  0  0  0  0            999 V2000
M  END
> <Molecule Name>
CVD-0005993

> <SMILES>
ClC#N

$$$$

  CDD

  0  0  0  0  0  0            999 V2000
M  END
> <Molecule Name>
CVD-0005992

> <SMILES>
O=C1CN=CN1

$$$$

  CDD

  0  0  0  0  0  0            999 V2000
M  END
> <Molecule Name>
CVD-0005991

> <SMILES>
CC#N

$$$$

  CDD

  0  0  0  0  0  0            999 V2000
M  END
> <Molecule Name>
CVD-0005990

> <SMILES>
O=c1nc1C#N

$$$$

  CDD

  0  0  0  0  0  0            999 V2000
M  END
> <Molecule Name>
CVD-0005989

> <SMILES>
O=c1nn1

$$$$

  CDD

  0  0  0  0  0  0            999 V2000
M  END
> <Molecule Name>
CVD-0005988

> <SMILES>
O=C1NCN1

$$$$

  CDD

  0  0  0  0  0  0            999 V2000
M  END
> <Molecule Name>
CVD-0005987

> <SMILES>
O=C1NC(=O)N1

$$$$

  CDD

  0  0  0  0  0  0            999 V2000
M  END
> <Molecule Name>
CVD-0005986

> <SMILES>
N#S1=NC=CN1

$$$$

  CDD

  0  0  0  0  0  0            999 V2000
M  END
> <Molecule Name>
CVD-0005985

> <SMILES>
O=c1cn1

$$$$

  CDD

  0  0  0  0  0  0            999 V2000
M  END
> <Molecule Name>
CVD-0005984

> <SMILES>
CS(=O)(=O)C1=C(C1)C#N

$$$$

  CDD

  0  0  0  0  0  0            999 V2000
M  END
> <Molecule Name>
CVD-0005983

> <SMILES>
CS(=O)#N

$$$$

  CDD

  0  0  0  0  0  0            999 V2000
M  END
> <Molecule Name>
CVD-0005982

> <SMILES>
CS(=O)(=O)CC#N

$$$$

  CDD

  0  0  0  0  0  0            999 V2000
M  END
> <Molecule Name>
CVD-0005981

> <SMILES>
CS(=O)(=O)CCC#N

$$$$

  CDD

  0  0  0  0  0  0            999 V2000
M  END
> <Molecule Name>
CVD-0005980

> <SMILES>
CS(=O)(=O)C1CC1C#N

$$$$

  CDD

  0  0  0  0  0  0            999 V2000
M  END
> <Molecule Name>
CVD-0005979

> <SMILES>
CS(=O)(=O)C1CC(C1)C#N

$$$$

  CDD

  0  0  0  0  0  0            999 V2000
M  END
> <Molecule Name>
CVD-0005978

> <SMILES>
[O-][S+]1CN(C1)C(=O)CCl

$$$$

  CDD

  0  0  0  0  0  0            999 V2000
M  END
> <Molecule Name>
CVD-0005977

> <SMILES>
ClCC(=O)N1CC(O1)C#N

$$$$

  CDD

  0  0  0  0  0  0            999 V2000
M  END
> <Molecule Name>
CVD-0005976

> <SMILES>
ClCC(=O)N1CC(C1)C#N

$$$$

  CDD

  0  0  0  0  0  0            999 V2000
M  END
> <Molecule Name>
CVD-0005975

> <SMILES>
ClCC(=O)N1CNO1

$$$$

  CDD

  0  0  0  0  0  0            999 V2000
M  END
> <Molecule Name>
CVD-0005974

> <SMILES>
ClCC(=O)N1COC1

$$$$

  CDD

  0  0  0  0  0  0            999 V2000
M  END
> <Molecule Name>
CVD-0005973

> <SMILES>
ClCC(=O)N1CSC1

$$$$

  CDD

  0  0  0  0  0  0            999 V2000
M  END
> <Molecule Name>
CVD-0005972

> <SMILES>
ClCC(=O)N1CCO1

$$$$

  CDD

  0  0  0  0  0  0            999 V2000
M  END
> <Molecule Name>
CVD-0005971

> <SMILES>
ClCC(=O)N1CNC1

$$$$

  CDD

  0  0  0  0  0  0            999 V2000
M  END
> <Molecule Name>
CVD-0005970

> <SMILES>
ClCC(=O)N1CCC1

$$$$

  CDD

  0  0  0  0  0  0            999 V2000
M  END
> <Molecule Name>
CVD-0005969

> <SMILES>
N#CC12CC1C2

$$$$

  CDD

  0  0  0  0  0  0            999 V2000
M  END
> <Molecule Name>
CVD-0005968

> <SMILES>
N#CC1CC1

$$$$

  CDD

  0  0  0  0  0  0            999 V2000
M  END
> <Molecule Name>
CVD-0005967

> <SMILES>
OC1C(=NN=C1C(=O)C(F)=O)C#N

$$$$

  CDD

  0  0  0  0  0  0            999 V2000
M  END
> <Molecule Name>
CVD-0005966

> <SMILES>
NC(=O)C(CC(=O)C1NC(Cl)C=N1)C#N

$$$$

  CDD

  0  0  0  0  0  0            999 V2000
M  END
> <Molecule Name>
CVD-0005965

> <SMILES>
CC(=O)CC(=O)c1nnc(s1)C#N

$$$$

  CDD

  0  0  0  0  0  0            999 V2000
M  END
> <Molecule Name>
CVD-0005964

> <SMILES>
CCC(=O)S1=CN(CC=C1)C(=O)C#N

$$$$

  CDD

  0  0  0  0  0  0            999 V2000
M  END
> <Molecule Name>
CVD-0005963

> <SMILES>
CC(=O)C(=O)c1cpc([nH]1)C#N

$$$$

  CDD

  0  0  0  0  0  0            999 V2000
M  END
> <Molecule Name>
CVD-0005962

> <SMILES>
O=C1N=NC(C=S)=C1C#N

$$$$

  CDD

  0  0  0  0  0  0            999 V2000
M  END
> <Molecule Name>
CVD-0005961

> <SMILES>
Cc1ccc(cc1C)C(=O)N1CCN(CC1)C(=O)CCl

$$$$

  CDD

  0  0  0  0  0  0            999 V2000
M  END
> <Molecule Name>
CVD-0005960

> <SMILES>
Cc1ccncc1NC(=O)CC#N

$$$$

  CDD

  0  0  0  0  0  0            999 V2000
M  END
> <Molecule Name>
CVD-0005959

> <SMILES>
CC(=O)NCCC1=CC(CCl)(C=O)c2ccc(F)cc12

$$$$

  CDD

  0  0  0  0  0  0            999 V2000
M  END
> <Molecule Name>
CVD-0005958

> <SMILES>
NCCC(CCl)C(=O)c1ccc2c(c1)[nH]c1cc(NC(=O)C3CCN(CC3)C(=O)CCl)ccc21

$$$$

  CDD

  0  0  0  0  0  0            999 V2000
M  END
> <Molecule Name>
CVD-0005957

> <SMILES>
CCCC(Cl)C(=O)N1CCC(CC1)C(=O)N(C)C(C)C1=CCCC(=C1)C#N

$$$$

  CDD

  0  0  0  0  0  0            999 V2000
M  END
> <Molecule Name>
CVD-0005956

> <SMILES>
Nc1csc(O)c1CN1CCN(CC1)C(=O)CCl

$$$$

  CDD

  0  0  0  0  0  0            999 V2000
M  END
> <Molecule Name>
CVD-0005955

> <SMILES>
Cc1ccc(Cl)cc1CN1CCN(C(=O)CCl)C(=O)C1

$$$$

  CDD

  0  0  0  0  0  0            999 V2000
M  END
> <Molecule Name>
CVD-0005954

> <SMILES>
Clc1cccc(CN2CCOC(C2)C=N)c1

$$$$

  CDD

  0  0  0  0  0  0            999 V2000
M  END
> <Molecule Name>
CVD-0005953

> <SMILES>
CN1C(CCc2ccc(cc12)S(N)(=O)=O)S1(N)C=CC=C1C=C

$$$$

  CDD

  0  0  0  0  0  0            999 V2000
M  END
> <Molecule Name>
CVD-0005952

> <SMILES>
ClCC(=O)NC1=CC(=CS(#N)=C1)C(=O)N1CCSCC1

$$$$

  CDD

  0  0  0  0  0  0            999 V2000
M  END
> <Molecule Name>
CVD-0005951

> <SMILES>
Cc1ccncc1C1N(CCN(C1=O)c1cccc(c1)C#N)C(=O)CCl

$$$$

  CDD

  0  0  0  0  0  0            999 V2000
M  END
> <Molecule Name>
CVD-0005950

> <SMILES>
ClCC(=O)N1CCN(C(=O)C1c1cccnc1)c1cccc(c1)C#N

$$$$

  CDD

  0  0  0  0  0  0            999 V2000
M  END
> <Molecule Name>
CVD-0005949

> <SMILES>
ClCC(=O)N1CCC(CC1)S(=O)(=O)c1cccs1

$$$$

  CDD

  0  0  0  0  0  0            999 V2000
M  END
> <Molecule Name>
CVD-0005948

> <SMILES>
N#Cc1nncs1

$$$$

  CDD

  0  0  0  0  0  0            999 V2000
M  END
> <Molecule Name>
CVD-0005947

> <SMILES>
FC1=CCC2(CC3(CCN(C3)c3cnccn3)CO2)N(C1)c1nnc(s1)C#N

$$$$

  CDD

  0  0  0  0  0  0            999 V2000
M  END
> <Molecule Name>
CVD-0005946

> <SMILES>
O=C1N(c2cnccc2C1=O)c1cccc(CN2CCOCC2)c1

$$$$

  CDD

  0  0  0  0  0  0            999 V2000
M  END
> <Molecule Name>
CVD-0005945

> <SMILES>
O=C(Nc1cccc(CN2CCOCC2)c1)C(=O)c1ccncc1

$$$$

  CDD

  0  0  0  0  0  0            999 V2000
M  END
> <Molecule Name>
CVD-0005944

> <SMILES>
C=C1C(=O)N(c2cnccc12)c1cccc(CN2CCOCC2)c1

$$$$

  CDD

  0  0  0  0  0  0            999 V2000
M  END
> <Molecule Name>
CVD-0005943

> <SMILES>
ClCC(=O)N1CCN(CC1C#N)C(=O)c1ccco1

$$$$

  CDD

  0  0  0  0  0  0            999 V2000
M  END
> <Molecule Name>
CVD-0005942

> <SMILES>
ClCC(=O)N1CCN(CC1CC#N)C(=O)c1ccco1

$$$$

  CDD

  0  0  0  0  0  0            999 V2000
M  END
> <Molecule Name>
CVD-0005941

> <SMILES>
ClCC(=O)Nc1cc(cc(c1)C(=O)N1CCSCC1)C#N

$$$$

  CDD

  0  0  0  0  0  0            999 V2000
M  END
> <Molecule Name>
CVD-0005940

> <SMILES>
CCCc1cc(NC(=O)CCl)cc(c1)C(=O)N1CCSCC1

$$$$

  CDD

  0  0  0  0  0  0            999 V2000
M  END
> <Molecule Name>
CVD-0005939

> <SMILES>
CC(=O)C(=O)N1CCN(CC1)C(=O)CCl

$$$$

  CDD

  0  0  0  0  0  0            999 V2000
M  END
> <Molecule Name>
CVD-0005938

> <SMILES>
CC(=C)C(=O)N1CCN(CC1)C(=O)CCl

$$$$

  CDD

  0  0  0  0  0  0            999 V2000
M  END
> <Molecule Name>
CVD-0005937

> <SMILES>
ClCC(=O)N1CCN(CC1)C(=O)c1ccc(cc1)C#N

$$$$

  CDD

  0  0  0  0  0  0            999 V2000
M  END
> <Molecule Name>
CVD-0005936

> <SMILES>
ClCC(=O)N1CCN(CC1)C(=O)c1ccccc1

$$$$

  CDD

  0  0  0  0  0  0            999 V2000
M  END
> <Molecule Name>
CVD-0005935

> <SMILES>
Cc1cc(CN(CC2C(O)CCCN2Cc2ccccc2)C(=O)CCl)no1

$$$$

  CDD

  0  0  0  0  0  0            999 V2000
M  END
> <Molecule Name>
CVD-0005934

> <SMILES>
Fc1cccc(CNCc2ccco2)c1-c1cnc(cn1)N1CCC2(CCOC2)C1

$$$$

  CDD

  0  0  0  0  0  0            999 V2000
M  END
> <Molecule Name>
CVD-0005933

> <SMILES>
Fc1cccc(CNC(C2OCCC22CCN(C2)c2cnccn2)c2ccco2)c1

$$$$

  CDD

  0  0  0  0  0  0            999 V2000
M  END
> <Molecule Name>
CVD-0005932

> <SMILES>
Fc1cc(CNCc2ccco2)ccc1C1CC2(CCOC2)CN1c1cnccn1

$$$$

  CDD

  0  0  0  0  0  0            999 V2000
M  END
> <Molecule Name>
CVD-0005931

> <SMILES>
Fc1cccc(CNCc2ccc(o2)-c2cncc(n2)N2CCC3(CCOC3)C2)c1

$$$$

  CDD

  0  0  0  0  0  0            999 V2000
M  END
> <Molecule Name>
CVD-0005930

> <SMILES>
Fc1cc(CNCc2ccco2)ccc1-c1cncc(n1)N1CCC2(CCOC2)C1

$$$$

  CDD

  0  0  0  0  0  0            999 V2000
M  END
> <Molecule Name>
CVD-0005929

> <SMILES>
Fc1cccc(c1)C(NCc1ccco1)C1CC2(CCOC2)CN1c1cnccn1

$$$$

  CDD

  0  0  0  0  0  0            999 V2000
M  END
> <Molecule Name>
CVD-0005928

> <SMILES>
Fc1cccc(CNCc2ccc(o2)C2COCC22CCN(C2)c2cnccn2)c1

$$$$

  CDD

  0  0  0  0  0  0            999 V2000
M  END
> <Molecule Name>
CVD-0005927

> <SMILES>
Fc1cc(CNCc2ccco2)cc(c1)-c1cncc(n1)N1CCC2(CCOC2)C1

$$$$

  CDD

  0  0  0  0  0  0            999 V2000
M  END
> <Molecule Name>
CVD-0005926

> <SMILES>
Fc1cccc(c1)C(NCc1ccco1)C1N(CCC11CCOC1)c1cnccn1

$$$$

  CDD

  0  0  0  0  0  0            999 V2000
M  END
> <Molecule Name>
CVD-0005925

> <SMILES>
Fc1cccc(CNCc2ccco2)c1C1CN(CC11CCOC1)c1cnccn1

$$$$

  CDD

  0  0  0  0  0  0            999 V2000
M  END
> <Molecule Name>
CVD-0005924

> <SMILES>
ClCC(=O)Nc1cnccc1C#N

$$$$

  CDD

  0  0  0  0  0  0            999 V2000
M  END
> <Molecule Name>
CVD-0005923

> <SMILES>
C=CC(=O)Nc1cnccc1C#N

$$$$

  CDD

  0  0  0  0  0  0            999 V2000
M  END
> <Molecule Name>
CVD-0005922

> <SMILES>
Cc1ccncc1NC(=O)C=C

$$$$

  CDD

  0  0  0  0  0  0            999 V2000
M  END
> <Molecule Name>
CVD-0005921

> <SMILES>
Cc1ccncc1NC(=O)CCl

$$$$

  CDD

  0  0  0  0  0  0            999 V2000
M  END
> <Molecule Name>
CVD-0005920

> <SMILES>
O=C(Nc1cccc(c1)C#N)C(=O)c1cncc2ccccc12

$$$$

  CDD

  0  0  0  0  0  0            999 V2000
M  END
> <Molecule Name>
CVD-0005919

> <SMILES>
Cc1ccncc1NC(=O)C(=O)c1cccc(Cl)c1

$$$$

  CDD

  0  0  0  0  0  0            999 V2000
M  END
> <Molecule Name>
CVD-0005918

> <SMILES>
Clc1cccc(CC(=O)Nc2cnccc2C#N)c1

$$$$

  CDD

  0  0  0  0  0  0            999 V2000
M  END
> <Molecule Name>
CVD-0005917

> <SMILES>
ClCC(=O)N1CCC(CC1)C(C#N)c1ccsc1

$$$$

  CDD

  0  0  0  0  0  0            999 V2000
M  END
> <Molecule Name>
CVD-0005916

> <SMILES>
C=CC(=O)N1CCN(CC1)C(=O)c1cccs1

$$$$

  CDD

  0  0  0  0  0  0            999 V2000
M  END
> <Molecule Name>
CVD-0005915

> <SMILES>
ClCC(=O)N1CCN(CC1)C(=O)c1ccsc1

$$$$

  CDD

  0  0  0  0  0  0            999 V2000
M  END
> <Molecule Name>
CVD-0005914

> <SMILES>
CC(=O)N1CCN(CC1)C(=O)c1ccsc1

$$$$

  CDD

  0  0  0  0  0  0            999 V2000
M  END
> <Molecule Name>
CVD-0005913

> <SMILES>
ClCC(=O)N1CCN(CC1)C(=O)CC#N

$$$$

  CDD

  0  0  0  0  0  0            999 V2000
M  END
> <Molecule Name>
CVD-0005912

> <SMILES>
ClCC(=O)N1CCN(CC1)C(=O)C#N

$$$$

  CDD

  0  0  0  0  0  0            999 V2000
M  END
> <Molecule Name>
CVD-0005911

> <SMILES>
ClCC(=O)N1CCN(CC1)C(=O)C=C

$$$$

  CDD

  0  0  0  0  0  0            999 V2000
M  END
> <Molecule Name>
CVD-0005910

> <SMILES>
ClCC(=O)N1CCN(CC1)C(=O)c1cccc(Cl)c1

$$$$

  CDD

  0  0  0  0  0  0            999 V2000
M  END
> <Molecule Name>
CVD-0005909

> <SMILES>
ClCC(=O)N1CCN(Cc2ccc(cc2)C#N)CC1

$$$$

  CDD

  0  0  0  0  0  0            999 V2000
M  END
> <Molecule Name>
CVD-0005908

> <SMILES>
Clc1cccc(CN2CCN(CC2)C(=O)C=C)c1

$$$$

  CDD

  0  0  0  0  0  0            999 V2000
M  END
> <Molecule Name>
CVD-0005907

> <SMILES>
C=CC(=O)N1CCN(CC1)C(c1ccccc1)c1ccccc1

$$$$

  CDD

  0  0  0  0  0  0            999 V2000
M  END
> <Molecule Name>
CVD-0005906

> <SMILES>
ClCC(=O)N1CCC(CC1)C(c1ccccc1)c1ccccc1

$$$$

  CDD

  0  0  0  0  0  0            999 V2000
M  END
> <Molecule Name>
CVD-0005905

> <SMILES>
Cc1ccccc1CC(=O)N1CCN(CC1)C(=O)CCl

$$$$

  CDD

  0  0  0  0  0  0            999 V2000
M  END
> <Molecule Name>
CVD-0005904

> <SMILES>
ClCC(=O)N1CCN(CC1)C(=O)Cc1ccccc1C#N

$$$$

  CDD

  0  0  0  0  0  0            999 V2000
M  END
> <Molecule Name>
CVD-0005903

> <SMILES>
ClCC(=O)N1CCN(CC1)C(=O)C(Cl)c1ccccc1C#N

$$$$

  CDD

  0  0  0  0  0  0            999 V2000
M  END
> <Molecule Name>
CVD-0005902

> <SMILES>
CC(C(=O)N1CCN(CC1)C(=O)CCl)c1ccccc1C#N

$$$$

  CDD

  0  0  0  0  0  0            999 V2000
M  END
> <Molecule Name>
CVD-0005901

> <SMILES>
ClCC(=O)N1CCN(CC1)C(=O)C(=O)c1ccccc1C#N

$$$$

  CDD

  0  0  0  0  0  0            999 V2000
M  END
> <Molecule Name>
CVD-0005900

> <SMILES>
ClCC(=O)N1CCN(CC1)C(=O)C(=O)c1ccccc1C#C

$$$$

  CDD

  0  0  0  0  0  0            999 V2000
M  END
> <Molecule Name>
CVD-0005899

> <SMILES>
Cc1ccccc1C(=O)C(=O)N1CCN(CC1)C(=O)CCl

$$$$

  CDD

  0  0  0  0  0  0            999 V2000
M  END
> <Molecule Name>
CVD-0005898

> <SMILES>
ClCC(=O)N1CCN(CC1)C(=O)C(=O)c1ccccc1C=C

$$$$

  CDD

  0  0  0  0  0  0            999 V2000
M  END
> <Molecule Name>
CVD-0005897

> <SMILES>
C=CC(=O)N1CCN(CC1)C(=O)c1cccc2ccccc12

$$$$

  CDD

  0  0  0  0  0  0            999 V2000
M  END
> <Molecule Name>
CVD-0005896

> <SMILES>
ClCC(=O)N1CCN(CC1)C(=O)c1cccc2ccccc12

$$$$

  CDD

  0  0  0  0  0  0            999 V2000
M  END
> <Molecule Name>
CVD-0005895

> <SMILES>
O=C(Cc1ccc2[nH]c(=O)[nH]c2c1)NC1(CNC(=O)c2cnc[nH]2)CC1

$$$$

  CDD

  0  0  0  0  0  0            999 V2000
M  END
> <Molecule Name>
CVD-0005894

> <SMILES>
O=C(Nc1ccccc1)N1CCN(CC1)C1C(=O)Nc2cnccc12

$$$$

  CDD

  0  0  0  0  0  0            999 V2000
M  END
> <Molecule Name>
CVD-0005893

> <SMILES>
CC(=O)Nc1cnccc1CN1CCN(CC1)C(=O)Nc1ccccc1

$$$$

  CDD

  0  0  0  0  0  0            999 V2000
M  END
> <Molecule Name>
CVD-0005892

> <SMILES>
Fc1ccc(CNc2ccc3N(CCCc3c2)C(=O)CCl)c(Cl)c1

$$$$

  CDD

  0  0  0  0  0  0            999 V2000
M  END
> <Molecule Name>
CVD-0005891

> <SMILES>
ClCC(=O)N1CCN(Cc2cccc(c2)C#N)CC1

$$$$

  CDD

  0  0  0  0  0  0            999 V2000
M  END
> <Molecule Name>
CVD-0005890

> <SMILES>
Brc1ccc2C(=O)C(=O)N(Cc3ccccc3)c2c1

$$$$

  CDD

  0  0  0  0  0  0            999 V2000
M  END
> <Molecule Name>
CVD-0005889

> <SMILES>
CC1(C)CCCN1S(=O)(=O)c1ccc2NC(=O)C(=O)c2c1

$$$$

  CDD

  0  0  0  0  0  0            999 V2000
M  END
> <Molecule Name>
CVD-0005888

> <SMILES>
Cc1cc(Br)cc2C(=O)C(=O)N(CCBr)c12

$$$$

  CDD

  0  0  0  0  0  0            999 V2000
M  END
> <Molecule Name>
CVD-0005887

> <SMILES>
NS(=O)(=O)c1ccc2NC(=O)C(=O)c2c1

$$$$

  CDD

  0  0  0  0  0  0            999 V2000
M  END
> <Molecule Name>
CVD-0005886

> <SMILES>
Brc1ccc(CN2C(=O)C(=O)c3ccccc23)cc1

$$$$

  CDD

  0  0  0  0  0  0            999 V2000
M  END
> <Molecule Name>
CVD-0005885

> <SMILES>
Brc1ccc2C(=O)C(=O)Nc2c1

$$$$

  CDD

  0  0  0  0  0  0            999 V2000
M  END
> <Molecule Name>
CVD-0005884

> <SMILES>
Brc1ccc2NC(=O)C(=O)c2c1

$$$$

  CDD

  0  0  0  0  0  0            999 V2000
M  END
> <Molecule Name>
CVD-0005883

> <SMILES>
Brc1ccc(CN2C(=O)C(=O)c3cccc(Br)c23)cc1

$$$$

  CDD

  0  0  0  0  0  0            999 V2000
M  END
> <Molecule Name>
CVD-0005882

> <SMILES>
Brc1cccc2C(=O)C(=O)Nc12

$$$$

  CDD

  0  0  0  0  0  0            999 V2000
M  END
> <Molecule Name>
CVD-0005881

> <SMILES>
ClC(=O)CS1(=N)=CC(=CC=C1)c1nnc([nH]1)C#N

$$$$

  CDD

  0  0  0  0  0  0            999 V2000
M  END
> <Molecule Name>
CVD-0005880

> <SMILES>
Cc1nnc(s1)N1CC(=CCC11CC2(CCN(C2)c2cnccn2)CO1)C(=O)NC(CC(N)=O)C(=O)NCC#CCl

$$$$

  CDD

  0  0  0  0  0  0            999 V2000
M  END
> <Molecule Name>
CVD-0005879

> <SMILES>
Cc1nnc(s1)N1CC(F)=CC(C(=O)NC(CC(N)=O)C(=O)NCC#CBr)C11CC2(CCN(C2)c2cnccn2)CO1

$$$$

  CDD

  0  0  0  0  0  0            999 V2000
M  END
> <Molecule Name>
CVD-0005878

> <SMILES>
Cc1nnc(s1)N1CC(F)=CCC11CC2(CCN(C2)c2cnccn2)CO1

$$$$

  CDD

  0  0  0  0  0  0            999 V2000
M  END
> <Molecule Name>
CVD-0005877

> <SMILES>
CC(NC(=O)c1ccc2cn[nH]c2c1)C(=O)Nc1ccc(cc1)-n1cnc2ccccc12

$$$$

  CDD

  0  0  0  0  0  0            999 V2000
M  END
> <Molecule Name>
CVD-0005876

> <SMILES>
OC(=O)C12CC(CNCc3ccc4CCOc4c3)(C1)OC2c1ccccc1

$$$$

  CDD

  0  0  0  0  0  0            999 V2000
M  END
> <Molecule Name>
CVD-0005875

> <SMILES>
O=C(NCCNc1ccncc1)c1cccc(c1)S(=O)(=O)Nc1ccccc1-c1ccccc1

$$$$

  CDD

  0  0  0  0  0  0            999 V2000
M  END
> <Molecule Name>
CVD-0005874

> <SMILES>
Cc1ccncc1NC(=O)Cc1cccc(OC(F)(F)F)c1

$$$$

  CDD

  0  0  0  0  0  0            999 V2000
M  END
> <Molecule Name>
CVD-0005873

> <SMILES>
NC(=O)c1ccncc1NC(=O)Cc1cccc(Cl)c1

$$$$

  CDD

  0  0  0  0  0  0            999 V2000
M  END
> <Molecule Name>
CVD-0005872

> <SMILES>
Cc1ccncc1NC(=O)Cc1cccc(c1)C(N)=O

$$$$

  CDD

  0  0  0  0  0  0            999 V2000
M  END
> <Molecule Name>
CVD-0005871

> <SMILES>
Cc1ccncc1NC(=O)Cc1ccccc1N

$$$$

  CDD

  0  0  0  0  0  0            999 V2000
M  END
> <Molecule Name>
CVD-0005870

> <SMILES>
Cn1cc(cc1CC(=O)Nc1cccc(c1)C(=O)NCc1ccccn1)S(N)(=O)=O

$$$$

  CDD

  0  0  0  0  0  0            999 V2000
M  END
> <Molecule Name>
CVD-0005869

> <SMILES>
O=C(Cc1ccc(=O)[nH]c1)N1CC2CCCN(C2C1)C(=O)Cc1ccc(=O)[nH]c1

$$$$

  CDD

  0  0  0  0  0  0            999 V2000
M  END
> <Molecule Name>
CVD-0005868

> <SMILES>
O=C(NCc1cccc(c1)C(=O)N1CCOCC1)c1cnc2n(Cc3ccccc3)c(=O)[nH]c(=O)c2c1

$$$$

  CDD

  0  0  0  0  0  0            999 V2000
M  END
> <Molecule Name>
CVD-0005867

> <SMILES>
CC1(NC(=O)NC1=O)c1ccc(CNC(=O)c2cc(nc3n(Cc4ccccc4)ncc23)C2CC2)cc1

$$$$

  CDD

  0  0  0  0  0  0            999 V2000
M  END
> <Molecule Name>
CVD-0005866

> <SMILES>
Oc1ccc(cc1)-c1nnc2CCC(Cn12)C(=O)NCc1coc2ccccc12

$$$$

  CDD

  0  0  0  0  0  0            999 V2000
M  END
> <Molecule Name>
CVD-0005865

> <SMILES>
Cc1c(sc2nc(Cc3ccccc3)[nH]c(=O)c12)C(=O)NCc1cccc(OCc2ccccn2)c1

$$$$

  CDD

  0  0  0  0  0  0            999 V2000
M  END
> <Molecule Name>
CVD-0005864

> <SMILES>
Fc1cccc(Cl)c1CN(C(=O)Cc1c[nH]c2ncccc12)c1ccc2[nH]c(=O)[nH]c2c1

$$$$

  CDD

  0  0  0  0  0  0            999 V2000
M  END
> <Molecule Name>
CVD-0005863

> <SMILES>
Cc1ncc2CC(CCc2n1)NC(=O)NCc1cccc(c1)N1C(=O)NC2(CCCC2)C1=O

$$$$

  CDD

  0  0  0  0  0  0            999 V2000
M  END
> <Molecule Name>
CVD-0005862

> <SMILES>
O=C(NCCc1ccc2OCCc2c1)NCc1cccc(c1)N1C(=O)NC2(CCCC2)C1=O

$$$$

  CDD

  0  0  0  0  0  0            999 V2000
M  END
> <Molecule Name>
CVD-0005861

> <SMILES>
CC1(C)NC(=O)N(Cc2ccc(CNC(=O)C(=O)NCc3cc4ccccc4[nH]3)cc2)C1=O

$$$$

  CDD

  0  0  0  0  0  0            999 V2000
M  END
> <Molecule Name>
CVD-0005860

> <SMILES>
Cc1nc(n[nH]1)-c1cccc(CNC(=O)Nc2cccc(CN3CCCC3=O)c2)c1

$$$$

  CDD

  0  0  0  0  0  0            999 V2000
M  END
> <Molecule Name>
CVD-0005859

> <SMILES>
FC(F)c1nc2cc(ccc2[nH]1)N1C(=O)NC(Cc2c[nH]c3ccccc23)C1=O

$$$$

  CDD

  0  0  0  0  0  0            999 V2000
M  END
> <Molecule Name>
CVD-0005858

> <SMILES>
O=C(NCc1ccc2NC(=O)Cc2c1)C(=O)Nc1ccccc1N1CCc2ccccc2C1

$$$$

  CDD

  0  0  0  0  0  0            999 V2000
M  END
> <Molecule Name>
CVD-0005857

> <SMILES>
O=C(CCNC(=O)c1c[nH]c2ccccc12)Nc1ccc(cc1)-n1cnc2ccccc12

$$$$

  CDD

  0  0  0  0  0  0            999 V2000
M  END
> <Molecule Name>
CVD-0005856

> <SMILES>
O=C(CSCc1nc2sc3CCCCc3c2c(=O)[nH]1)N1CCCC(C1)c1ccn[nH]1

$$$$

  CDD

  0  0  0  0  0  0            999 V2000
M  END
> <Molecule Name>
CVD-0005855

> <SMILES>
NC(=O)CC1(CCc2cccnc12)NC(=O)Cn1nnc2CNCCc12

$$$$

  CDD

  0  0  0  0  0  0            999 V2000
M  END
> <Molecule Name>
CVD-0005854

> <SMILES>
Cn1cccc1C(CC(N)=O)NC(=O)Cn1nnc2CNCCc12

$$$$

  CDD

  0  0  0  0  0  0            999 V2000
M  END
> <Molecule Name>
CVD-0005853

> <SMILES>
O=C(Cn1nnc2CNCCc12)NC(C(=O)N1CCCC1)c1ccccn1

$$$$

  CDD

  0  0  0  0  0  0            999 V2000
M  END
> <Molecule Name>
CVD-0005852

> <SMILES>
Cn1ccc(CNC(=O)Cn2nnc3CNCCc23)c1

$$$$

  CDD

  0  0  0  0  0  0            999 V2000
M  END
> <Molecule Name>
CVD-0005851

> <SMILES>
COc1ccc2nnc(CC(=O)NC3(CC(N)=O)CCc4cccnc34)n2c1

$$$$

  CDD

  0  0  0  0  0  0            999 V2000
M  END
> <Molecule Name>
CVD-0005850

> <SMILES>
COc1ccc2nnc(CC(=O)NC(CC(N)=O)c3cccn3C)n2c1

$$$$

  CDD

  0  0  0  0  0  0            999 V2000
M  END
> <Molecule Name>
CVD-0005849

> <SMILES>
COc1ccc2nnc(CC(=O)NC(C(=O)N3CCCC3)c3ccccn3)n2c1

$$$$

  CDD

  0  0  0  0  0  0            999 V2000
M  END
> <Molecule Name>
CVD-0005848

> <SMILES>
COc1ccc2nnc(CC(=O)NCc3ccn(C)c3)n2c1

$$$$

  CDD

  0  0  0  0  0  0            999 V2000
M  END
> <Molecule Name>
CVD-0005847

> <SMILES>
COc1cc2nnc(CC(=O)NC3(CC(N)=O)CCc4cccnc34)n2cc1OC

$$$$

  CDD

  0  0  0  0  0  0            999 V2000
M  END
> <Molecule Name>
CVD-0005846

> <SMILES>
COc1cc2nnc(CC(=O)NC(CC(N)=O)c3cccn3C)n2cc1OC

$$$$

  CDD

  0  0  0  0  0  0            999 V2000
M  END
> <Molecule Name>
CVD-0005845

> <SMILES>
COc1cc2nnc(CC(=O)NC(C(=O)N3CCCC3)c3ccccn3)n2cc1OC

$$$$

  CDD

  0  0  0  0  0  0            999 V2000
M  END
> <Molecule Name>
CVD-0005844

> <SMILES>
COc1cc2nnc(CC(=O)NCc3ccn(C)c3)n2cc1OC

$$$$

  CDD

  0  0  0  0  0  0            999 V2000
M  END
> <Molecule Name>
CVD-0005843

> <SMILES>
NC(=O)CC1(CCc2cccnc12)NC(=O)Cc1nnc2ccc(O)cn12

$$$$

  CDD

  0  0  0  0  0  0            999 V2000
M  END
> <Molecule Name>
CVD-0005842

> <SMILES>
Cn1cccc1C(CC(N)=O)NC(=O)Cc1nnc2ccc(O)cn12

$$$$

  CDD

  0  0  0  0  0  0            999 V2000
M  END
> <Molecule Name>
CVD-0005841

> <SMILES>
Oc1ccc2nnc(CC(=O)NC(C(=O)N3CCCC3)c3ccccn3)n2c1

$$$$

  CDD

  0  0  0  0  0  0            999 V2000
M  END
> <Molecule Name>
CVD-0005840

> <SMILES>
Cn1ccc(CNC(=O)Cc2nnc3ccc(O)cn23)c1

$$$$

  CDD

  0  0  0  0  0  0            999 V2000
M  END
> <Molecule Name>
CVD-0005839

> <SMILES>
Cc1ccncc1N1N(CC(C1=O)c1cccc(c1)C#N)C(=O)CCl

$$$$

  CDD

  0  0  0  0  0  0            999 V2000
M  END
> <Molecule Name>
CVD-0005838

> <SMILES>
Cc1ccncc1N1N(CCC(C1=O)c1cccc(c1)C#N)C(=O)CCl

$$$$

  CDD

  0  0  0  0  0  0            999 V2000
M  END
> <Molecule Name>
CVD-0005837

> <SMILES>
ClCC(=O)N1CCN(Cc2cccc(OC3CCCC(C3)OC#N)c2)CC1

$$$$

  CDD

  0  0  0  0  0  0            999 V2000
M  END
> <Molecule Name>
CVD-0005836

> <SMILES>
CCNc1ccc(Nc2cc(CN3CCN(CC3)C(=O)CCl)cc(c2)C#N)c(c1)C#N

$$$$

  CDD

  0  0  0  0  0  0            999 V2000
M  END
> <Molecule Name>
CVD-0005835

> <SMILES>
Cc1cc(CN2CCN(CC2)C(=O)CCl)cc(Nc2ccc(NCC#N)cc2C#N)c1

$$$$

  CDD

  0  0  0  0  0  0            999 V2000
M  END
> <Molecule Name>
CVD-0005834

> <SMILES>
COC(=O)C1CC(Cc2cccc(c2)C#N)CCN1C(=O)CCl

$$$$

  CDD

  0  0  0  0  0  0            999 V2000
M  END
> <Molecule Name>
CVD-0005833

> <SMILES>
ClCC(=O)N1C2CCC1CC(Cc1cccc(c1)C#N)C2

$$$$

  CDD

  0  0  0  0  0  0            999 V2000
M  END
> <Molecule Name>
CVD-0005832

> <SMILES>
ClCC(=O)N1CCC(Cc2cccc(c2)C#N)CC1

$$$$

  CDD

  0  0  0  0  0  0            999 V2000
M  END
> <Molecule Name>
CVD-0005831

> <SMILES>
ClCC(=O)N1CCN(CC1)C(CCc1ccccc1)C#N

$$$$

  CDD

  0  0  0  0  0  0            999 V2000
M  END
> <Molecule Name>
CVD-0005830

> <SMILES>
OC1CCN(CC1)C(=O)c1c(CN2CCN(CC2)C(=O)CCl)cccc1C#N

$$$$

  CDD

  0  0  0  0  0  0            999 V2000
M  END
> <Molecule Name>
CVD-0005829

> <SMILES>
C[C@H](C(O)=O)c1ccc2c(c1)n(C(=O)C=C)c1ccc(Cl)cc21

$$$$

  CDD

  0  0  0  0  0  0            999 V2000
M  END
> <Molecule Name>
CVD-0005828

> <SMILES>
C=CC(=O)n1cc(CNC(=O)c2cccnc2)cn1

$$$$

  CDD

  0  0  0  0  0  0            999 V2000
M  END
> <Molecule Name>
CVD-0005827

> <SMILES>
ClCC(=O)n1cc(CNC(=O)c2cccnc2)cn1

$$$$

  CDD

  0  0  0  0  0  0            999 V2000
M  END
> <Molecule Name>
CVD-0005826

> <SMILES>
C[C@H](C(O)=O)c1ccc2c(c1)n(C#N)c1ccc(Cl)cc21

$$$$

  CDD

  0  0  0  0  0  0            999 V2000
M  END
> <Molecule Name>
CVD-0005825

> <SMILES>
C[C@H](C(O)=O)c1ccc2c(c1)n(C(=O)CCl)c1ccc(Cl)cc21

$$$$

  CDD

  0  0  0  0  0  0            999 V2000
M  END
> <Molecule Name>
CVD-0005824

> <SMILES>
O=C(COC(=O)c1cccc(NS(=O)(=O)C#N)c1)Nc1cccc(c1)N1CCCC1=O

$$$$

  CDD

  0  0  0  0  0  0            999 V2000
M  END
> <Molecule Name>
CVD-0005823

> <SMILES>
O=C(Nc1ccc(cc1)C(=O)Nc1cnccc1C#N)Nc1cccnc1

$$$$

  CDD

  0  0  0  0  0  0            999 V2000
M  END
> <Molecule Name>
CVD-0005822

> <SMILES>
O=C(C#N)N1CCN(CC1)S(=O)(=O)C1=CCS=C1

$$$$

  CDD

  0  0  0  0  0  0            999 V2000
M  END
> <Molecule Name>
CVD-0005821

> <SMILES>
Fc1cccc(c1)S(=O)(=O)N1CCN(CC1)C(=O)C#N

$$$$

  CDD

  0  0  0  0  0  0            999 V2000
M  END
> <Molecule Name>
CVD-0005820

> <SMILES>
OC(=O)C(C#N)c1ccc2c(c1)[nH]c1ccc(Cl)cc21

$$$$

  CDD

  0  0  0  0  0  0            999 V2000
M  END
> <Molecule Name>
CVD-0005819

> <SMILES>
Fc1cccc(F)c1S(=O)(=O)N1CCN(CC1)C(=O)C#N

$$$$

  CDD

  0  0  0  0  0  0            999 V2000
M  END
> <Molecule Name>
CVD-0005818

> <SMILES>
O=C(C#N)N1CCN(CC1)S(=O)(=O)c1cccs1

$$$$

  CDD

  0  0  0  0  0  0            999 V2000
M  END
> <Molecule Name>
CVD-0005817

> <SMILES>
O=C(Nc1cccc(c1)N1CCCC1=O)c1cccc(NS(=O)(=O)C#N)c1

$$$$

  CDD

  0  0  0  0  0  0            999 V2000
M  END
> <Molecule Name>
CVD-0005816

> <SMILES>
O=C(Nc1cccnc1)Nc1cccc(c1)C(=O)Nc1cnccc1C#N

$$$$

  CDD

  0  0  0  0  0  0            999 V2000
M  END
> <Molecule Name>
CVD-0005815

> <SMILES>
O=C(Oc1cccc(c1)N1CCCC1=O)c1cccc(NS(=O)(=O)C#N)c1

$$$$

  CDD

  0  0  0  0  0  0            999 V2000
M  END
> <Molecule Name>
CVD-0005814

> <SMILES>
O=C(Nc1cccc(c1)N1CCCC1=O)C#N

$$$$

  CDD

  0  0  0  0  0  0            999 V2000
M  END
> <Molecule Name>
CVD-0005813

> <SMILES>
O=C(C#N)N1CCN(Cc2cccs2)CC1

$$$$

  CDD

  0  0  0  0  0  0            999 V2000
M  END
> <Molecule Name>
CVD-0005812

> <SMILES>
O=C(C#N)N1CCN(Cc2ccsc2)CC1

$$$$

  CDD

  0  0  0  0  0  0            999 V2000
M  END
> <Molecule Name>
CVD-0005811

> <SMILES>
CCNc1ccc(Nc2cc(C)cc(CN3CCN(CC3)C(=O)CCl)c2)c(C=C)c1

$$$$

  CDD

  0  0  0  0  0  0            999 V2000
M  END
> <Molecule Name>
CVD-0005810

> <SMILES>
C=Cc1ccc(Nc2ccc(NC(=O)Nc3cccnc3)cc2)nc1

$$$$

  CDD

  0  0  0  0  0  0            999 V2000
M  END
> <Molecule Name>
CVD-0005809

> <SMILES>
Fc1ccc2[nH]cc(CNCC(=O)NCc3ccc(CN4CCN(CC4)C(=O)C=C)cc3)c2c1

$$$$

  CDD

  0  0  0  0  0  0            999 V2000
M  END
> <Molecule Name>
CVD-0005808

> <SMILES>
COC1CCCC(C1)Oc1cccc(CN2CCN(CC2)C(=O)C=C)c1

$$$$

  CDD

  0  0  0  0  0  0            999 V2000
M  END
> <Molecule Name>
CVD-0005807

> <SMILES>
CCNc1ccc(Nc2cc(C)cc(CN3CCN(CC3)C(=O)C=C)c2)c(c1)C#N

$$$$

  CDD

  0  0  0  0  0  0            999 V2000
M  END
> <Molecule Name>
CVD-0005806

> <SMILES>
COC(=O)C1CC(Cc2cccc(C)c2)CCN1C(=O)C=C

$$$$

  CDD

  0  0  0  0  0  0            999 V2000
M  END
> <Molecule Name>
CVD-0005805

> <SMILES>
Cc1cccc(CC2CC3CCC(C2)N3C(=O)C=C)c1

$$$$

  CDD

  0  0  0  0  0  0            999 V2000
M  END
> <Molecule Name>
CVD-0005804

> <SMILES>
Cc1cccc(CC2CCN(CC2)C(=O)C=C)c1

$$$$

  CDD

  0  0  0  0  0  0            999 V2000
M  END
> <Molecule Name>
CVD-0005803

> <SMILES>
CC(CCc1ccccc1)N1CCN(CC1)C(=O)C=C

$$$$

  CDD

  0  0  0  0  0  0            999 V2000
M  END
> <Molecule Name>
CVD-0005802

> <SMILES>
C=CC(=O)N1CCN(Cc2cnc(nc2)-c2ccccc2)CC1

$$$$

  CDD

  0  0  0  0  0  0            999 V2000
M  END
> <Molecule Name>
CVD-0005801

> <SMILES>
Cc1cccc(CN2CCN(CC2)C(=O)C=C)c1C(=O)N1CCC(O)CC1

$$$$

  CDD

  0  0  0  0  0  0            999 V2000
M  END
> <Molecule Name>
CVD-0005800

> <SMILES>
C=CC(=O)N1CCN(CC1)S(=O)(=O)C1=CCS=C1

$$$$

  CDD

  0  0  0  0  0  0            999 V2000
M  END
> <Molecule Name>
CVD-0005799

> <SMILES>
Fc1cccc(c1)S(=O)(=O)N1CCN(CC1)C(=O)C=C

$$$$

  CDD

  0  0  0  0  0  0            999 V2000
M  END
> <Molecule Name>
CVD-0005798

> <SMILES>
C=CC(=O)N1CCN(CC1)S(=O)(=O)c1cccs1

$$$$

  CDD

  0  0  0  0  0  0            999 V2000
M  END
> <Molecule Name>
CVD-0005797

> <SMILES>
C=CC(=O)Nc1cccc(c1)N1CCCC1=O

$$$$

  CDD

  0  0  0  0  0  0            999 V2000
M  END
> <Molecule Name>
CVD-0005796

> <SMILES>
C=CC(=O)N1CCN(Cc2cccs2)CC1

$$$$

  CDD

  0  0  0  0  0  0            999 V2000
M  END
> <Molecule Name>
CVD-0005795

> <SMILES>
C=CC(=O)N1CCN(Cc2ccsc2)CC1

$$$$

  CDD

  0  0  0  0  0  0            999 V2000
M  END
> <Molecule Name>
CVD-0005794

> <SMILES>
CCC(NC(=O)N(C)Cc1csc(n1)C(C)C)C(=O)NC(CCC(Cc1ccccc1)NC(O)OCc1cncs1)Cc1ccccc1

$$$$

  CDD

  0  0  0  0  0  0            999 V2000
M  END
> <Molecule Name>
CVD-0005793

> <SMILES>
CC(C)C(N1CCC(O)NC1=O)C(=O)NC(CC(O)C(Cc1ccccc1)NC(=O)COc1c(C)cccc1C)Cc1ccccc1

$$$$

  CDD

  0  0  0  0  0  0            999 V2000
M  END
> <Molecule Name>
CVD-0005792

> <SMILES>
CC(C)C(NCC(O)C(Cc1ccccc1)NC(=O)OC1COC2OCCC12)S(=O)(=O)c1ccc(N)cc1

$$$$

  CDD

  0  0  0  0  0  0            999 V2000
M  END
> <Molecule Name>
CVD-0005791

> <SMILES>
NC(=N)Cc1ncncc1N

$$$$

  CDD

  0  0  0  0  0  0            999 V2000
M  END
> <Molecule Name>
CVD-0005790

> <SMILES>
CC\C(N)=N/c1cncnc1

$$$$

  CDD

  0  0  0  0  0  0            999 V2000
M  END
> <Molecule Name>
CVD-0005789

> <SMILES>
Fc1cc(CNCc2ccco2)cc(c1)S(=O)(=O)NCCc1ccccc1

$$$$

  CDD

  0  0  0  0  0  0            999 V2000
M  END
> <Molecule Name>
CVD-0005788

> <SMILES>
Fc1cccc(c1)C(NCc1ccco1)S(=O)(=O)NCCc1ccccc1

$$$$

  CDD

  0  0  0  0  0  0            999 V2000
M  END
> <Molecule Name>
CVD-0005787

> <SMILES>
Fc1cccc(CNCc2ccc(o2)S(=O)(=O)NCCc2ccccc2)c1

$$$$

  CDD

  0  0  0  0  0  0            999 V2000
M  END
> <Molecule Name>
CVD-0005786

> <SMILES>
Fc1cccc(CC(Cc2ccco2)S(=O)(=O)NCCc2ccccc2)c1

$$$$

  CDD

  0  0  0  0  0  0            999 V2000
M  END
> <Molecule Name>
CVD-0005785

> <SMILES>
Fc1cccc(CNCc2ccco2)c1S(=O)(=O)NCCc1ccccc1

$$$$

  CDD

  0  0  0  0  0  0            999 V2000
M  END
> <Molecule Name>
CVD-0005784

> <SMILES>
CC(=O)O[C@@H]1O[C@H](OC(C)=O)[C@H]2C=C(CC[C@@H]12)[C@]1(C)CCCC(C)(C)C1

$$$$

  CDD

  0  0  0  0  0  0            999 V2000
M  END
> <Molecule Name>
CVD-0005783

> <SMILES>
CN(CO)c1ccc([C@@H]2Nc3nc(nn3C(N)=C2C#N)C(F)(F)F)c(CN)c1

$$$$

  CDD

  0  0  0  0  0  0            999 V2000
M  END
> <Molecule Name>
CVD-0005782

> <SMILES>
CN(C)c1ccc([C@@H]2Nc3nc(nn3C(N)=C2C#N)C(F)(F)F)c(CN)c1

$$$$

  CDD

  0  0  0  0  0  0            999 V2000
M  END
> <Molecule Name>
CVD-0005781

> <SMILES>
CN1CCN2C(C1)CCC1CN(CCS1)C(=O)c1cccc(NC(=O)CCCCCCCC3C=C(CC2=O)c2cccnc32)c1

$$$$

  CDD

  0  0  0  0  0  0            999 V2000
M  END
> <Molecule Name>
CVD-0005780

> <SMILES>
CN1CCN2C(C1)CCCc1ccnc3[nH]c(CCc4cc(NC(=O)CCl)cc(c4)C(=O)N4CCSCC4)c(CC2=O)c13

$$$$

  CDD

  0  0  0  0  0  0            999 V2000
M  END
> <Molecule Name>
CVD-0005779

> <SMILES>
CN1CCN(CC1)C(=O)COc1ccc(cc1)-c1ccoc1C(=O)N1CCN(CC1)C(=O)CCl

$$$$

  CDD

  0  0  0  0  0  0            999 V2000
M  END
> <Molecule Name>
CVD-0005778

> <SMILES>
CN1CCN(CC1)C(=O)COc1ccc(cc1)C1CN(CCN1C(=O)CCl)C(=O)c1ccco1

$$$$

  CDD

  0  0  0  0  0  0            999 V2000
M  END
> <Molecule Name>
CVD-0005777

> <SMILES>
COc1ccccc1OCCNC(=O)c1cc(=O)[nH]c2cccc(OC)c12

$$$$

  CDD

  0  0  0  0  0  0            999 V2000
M  END
> <Molecule Name>
CVD-0005776

> <SMILES>
COc1ccccc1OCCNC(=O)c1cc(=O)[nH]c2cccc(F)c12

$$$$

  CDD

  0  0  0  0  0  0            999 V2000
M  END
> <Molecule Name>
CVD-0005775

> <SMILES>
COc1ccccc1OCCNC(=O)c1cc(=O)[nH]c2cccc(C)c12

$$$$

  CDD

  0  0  0  0  0  0            999 V2000
M  END
> <Molecule Name>
CVD-0005774

> <SMILES>
Cc1ccncc1NC(=O)C[C@@H](N1CCC(O)CC1)c1ccccc1

$$$$

  CDD

  0  0  0  0  0  0            999 V2000
M  END
> <Molecule Name>
CVD-0005773

> <SMILES>
ClCC(=O)N1CCN(CC1)C(=O)c1ccc(COc2ccc(cc2)N2CCN(CC2)C(=O)CCl)cc1

$$$$

  CDD

  0  0  0  0  0  0            999 V2000
M  END
> <Molecule Name>
CVD-0005772

> <SMILES>
Cc1ccncc1NC(=O)CN1CCN(CC1)C(=O)Nc1ccccc1

$$$$

  CDD

  0  0  0  0  0  0            999 V2000
M  END
> <Molecule Name>
CVD-0005771

> <SMILES>
Clc1cccc(CC2(CCOC2)c2ccc3cc2NC3=O)c1

$$$$

  CDD

  0  0  0  0  0  0            999 V2000
M  END
> <Molecule Name>
CVD-0005770

> <SMILES>
O=C1N2c3cc1ccc3C1(CCOC1)Cc1cccc2c1

$$$$

  CDD

  0  0  0  0  0  0            999 V2000
M  END
> <Molecule Name>
CVD-0005769

> <SMILES>
Clc1cccc(CC23CCC(C2)Cc2cnccc32)c1

$$$$

  CDD

  0  0  0  0  0  0            999 V2000
M  END
> <Molecule Name>
CVD-0005768

> <SMILES>
Clc1cccc(CC23CCC(C2)CNc2cnccc32)c1

$$$$

  CDD

  0  0  0  0  0  0            999 V2000
M  END
> <Molecule Name>
CVD-0005767

> <SMILES>
Clc1cccc(CC23CCC(C2)C(=O)Nc2cnccc32)c1

$$$$

  CDD

  0  0  0  0  0  0            999 V2000
M  END
> <Molecule Name>
CVD-0005766

> <SMILES>
O=C1Cc2cccc(CC3(CCOC3)c3ccncc3N1)c2

$$$$

  CDD

  0  0  0  0  0  0            999 V2000
M  END
> <Molecule Name>
CVD-0005765

> <SMILES>
CC(=O)Nc1cnccc1C1(Cc2cccc(Cl)c2)CCOC1

$$$$

  CDD

  0  0  0  0  0  0            999 V2000
M  END
> <Molecule Name>
CVD-0005764

> <SMILES>
Clc1cccc(CN2CCC3(CC2)C(=O)Nc2cnccc32)c1

$$$$

  CDD

  0  0  0  0  0  0            999 V2000
M  END
> <Molecule Name>
CVD-0005763

> <SMILES>
O=C1Nc2cnccc2C11CCC11Cc2cc1ccc2

$$$$

  CDD

  0  0  0  0  0  0            999 V2000
M  END
> <Molecule Name>
CVD-0005762

> <SMILES>
Clc1cccc(CC2CCC22C(=O)Nc3cnccc23)c1

$$$$

  CDD

  0  0  0  0  0  0            999 V2000
M  END
> <Molecule Name>
CVD-0005761

> <SMILES>
Clc1cccc(CC23CCC22CN3c3cnccc23)c1

$$$$

  CDD

  0  0  0  0  0  0            999 V2000
M  END
> <Molecule Name>
CVD-0005760

> <SMILES>
Clc1cccc(CC23CCC22C(=O)Nc4cc3ccc24)c1

$$$$

  CDD

  0  0  0  0  0  0            999 V2000
M  END
> <Molecule Name>
CVD-0005759

> <SMILES>
O=C1Nc2cnccc2C11CCC11Cc2cccc(C1)c2

$$$$

  CDD

  0  0  0  0  0  0            999 V2000
M  END
> <Molecule Name>
CVD-0005758

> <SMILES>
O=C1N2c3cnccc3C11CCN(CC1)Cc1cccc2c1

$$$$

  CDD

  0  0  0  0  0  0            999 V2000
M  END
> <Molecule Name>
CVD-0005757

> <SMILES>
Clc1cccc(CN2CCC34C(C2)=C3Nc2cnccc42)c1

$$$$

  CDD

  0  0  0  0  0  0            999 V2000
M  END
> <Molecule Name>
CVD-0005756

> <SMILES>
CC1(Cc2cccc(Cl)c2)CCC11C(=O)Nc2cnccc12

$$$$

  CDD

  0  0  0  0  0  0            999 V2000
M  END
> <Molecule Name>
CVD-0005755

> <SMILES>
O=C1Nc2cnccc2C11CCN2CC1c1cccc(C2)c1

$$$$

  CDD

  0  0  0  0  0  0            999 V2000
M  END
> <Molecule Name>
CVD-0005754

> <SMILES>
Clc1cccc(CC23CCC(C2)c2ccncc2NC3)c1

$$$$

  CDD

  0  0  0  0  0  0            999 V2000
M  END
> <Molecule Name>
CVD-0005753

> <SMILES>
C1CN2CC1c1ccncc1NCCc1cccc(C2)c1

$$$$

  CDD

  0  0  0  0  0  0            999 V2000
M  END
> <Molecule Name>
CVD-0005752

> <SMILES>
Clc1cccc(CN2CCC3(C2)C(=O)Nc2cnccc32)c1

$$$$

  CDD

  0  0  0  0  0  0            999 V2000
M  END
> <Molecule Name>
CVD-0005751

> <SMILES>
CC(=O)Nc1cnccc1C1CCN(Cc2cccc(Cl)c2)C1

$$$$

  CDD

  0  0  0  0  0  0            999 V2000
M  END
> <Molecule Name>
CVD-0005750

> <SMILES>
C1CC2(Cc3cc2ccc3)CC11Cc2ccncc2N1

$$$$

  CDD

  0  0  0  0  0  0            999 V2000
M  END
> <Molecule Name>
CVD-0005749

> <SMILES>
O=C1Cc2ccncc2N1c1cccc(CN2CCOCC2)c1

$$$$

  CDD

  0  0  0  0  0  0            999 V2000
M  END
> <Molecule Name>
CVD-0005748

> <SMILES>
O=C1Nc2cc1ccc2C1CCC2(C1)Cc1cc2ccc1

$$$$

  CDD

  0  0  0  0  0  0            999 V2000
M  END
> <Molecule Name>
CVD-0005747

> <SMILES>
C1CC2(CC1c1ccc3CNc1c3)Cc1cc2ccc1

$$$$

  CDD

  0  0  0  0  0  0            999 V2000
M  END
> <Molecule Name>
CVD-0005746

> <SMILES>
Cc1ccncc1CC1CCC2(C1)Cc1cc2ccc1

$$$$

  CDD

  0  0  0  0  0  0            999 V2000
M  END
> <Molecule Name>
CVD-0005745

> <SMILES>
Cc1ccncc1NCC1CCC2(C1)Cc1cc2ccc1

$$$$

  CDD

  0  0  0  0  0  0            999 V2000
M  END
> <Molecule Name>
CVD-0005744

> <SMILES>
Cc1ccncc1NC(=O)C1CCC2(C1)Cc1cc2ccc1

$$$$

  CDD

  0  0  0  0  0  0            999 V2000
M  END
> <Molecule Name>
CVD-0005743

> <SMILES>
CC(=O)Nc1cnccc1C1CCC2(C1)Cc1cc2ccc1

$$$$

  CDD

  0  0  0  0  0  0            999 V2000
M  END
> <Molecule Name>
CVD-0005742

> <SMILES>
Clc1cccc(CN2CCC(CC2)c2ccc3CNc2c3)c1

$$$$

  CDD

  0  0  0  0  0  0            999 V2000
M  END
> <Molecule Name>
CVD-0005741

> <SMILES>
Clc1cccc(CC2(CCOCC2)c2ccc3CNc2c3)c1

$$$$

  CDD

  0  0  0  0  0  0            999 V2000
M  END
> <Molecule Name>
CVD-0005740

> <SMILES>
C(N1CCOCC1)c1cccc(Cc2ccc3CNc2c3)c1

$$$$

  CDD

  0  0  0  0  0  0            999 V2000
M  END
> <Molecule Name>
CVD-0005739

> <SMILES>
Clc1cccc(CN2CCC(CC2)c2ccc3Cc2c3)c1

$$$$

  CDD

  0  0  0  0  0  0            999 V2000
M  END
> <Molecule Name>
CVD-0005738

> <SMILES>
Clc1cccc(CC2(CCOCC2)c2ccc3Cc2c3)c1

$$$$

  CDD

  0  0  0  0  0  0            999 V2000
M  END
> <Molecule Name>
CVD-0005737

> <SMILES>
C(N1CCOCC1)c1cccc(Cc2ccc3Cc2c3)c1

$$$$

  CDD

  0  0  0  0  0  0            999 V2000
M  END
> <Molecule Name>
CVD-0005736

> <SMILES>
Cc1ccncc1CC1CCN(Cc2cccc(Cl)c2)CC1

$$$$

  CDD

  0  0  0  0  0  0            999 V2000
M  END
> <Molecule Name>
CVD-0005735

> <SMILES>
Cc1ccncc1CC1(Cc2cccc(Cl)c2)CCOCC1

$$$$

  CDD

  0  0  0  0  0  0            999 V2000
M  END
> <Molecule Name>
CVD-0005734

> <SMILES>
Cc1ccncc1CCc1cccc(CN2CCOCC2)c1

$$$$

  CDD

  0  0  0  0  0  0            999 V2000
M  END
> <Molecule Name>
CVD-0005733

> <SMILES>
Clc1cccc(CN2CCC3(Cc4ccncc4N3)CC2)c1

$$$$

  CDD

  0  0  0  0  0  0            999 V2000
M  END
> <Molecule Name>
CVD-0005732

> <SMILES>
C(N1CCOCC1)c1cccc(c1)C1Cc2ccncc2N1

$$$$

  CDD

  0  0  0  0  0  0            999 V2000
M  END
> <Molecule Name>
CVD-0005731

> <SMILES>
Cc1ccncc1NCC1CCN(Cc2cccc(Cl)c2)CC1

$$$$

  CDD

  0  0  0  0  0  0            999 V2000
M  END
> <Molecule Name>
CVD-0005730

> <SMILES>
Cc1ccncc1NCC1(Cc2cccc(Cl)c2)CCOCC1

$$$$

  CDD

  0  0  0  0  0  0            999 V2000
M  END
> <Molecule Name>
CVD-0005729

> <SMILES>
Clc1cccc(CN2CCC(CC2)c2ccc3cc2NC3=O)c1

$$$$

  CDD

  0  0  0  0  0  0            999 V2000
M  END
> <Molecule Name>
CVD-0005728

> <SMILES>
Clc1cccc(CC2(CCOCC2)c2ccc3cc2NC3=O)c1

$$$$

  CDD

  0  0  0  0  0  0            999 V2000
M  END
> <Molecule Name>
CVD-0005727

> <SMILES>
O=C1Nc2cc1ccc2Cc1cccc(CN2CCOCC2)c1

$$$$

  CDD

  0  0  0  0  0  0            999 V2000
M  END
> <Molecule Name>
CVD-0005726

> <SMILES>
Cc1ccncc1NCCc1cccc(CN2CCOCC2)c1

$$$$

  CDD

  0  0  0  0  0  0            999 V2000
M  END
> <Molecule Name>
CVD-0005725

> <SMILES>
Cc1ccncc1NC(=O)C1CCN(Cc2cccc(Cl)c2)CC1

$$$$

  CDD

  0  0  0  0  0  0            999 V2000
M  END
> <Molecule Name>
CVD-0005724

> <SMILES>
CC(=O)Nc1cnccc1C1CCN(Cc2cccc(Cl)c2)CC1

$$$$

  CDD

  0  0  0  0  0  0            999 V2000
M  END
> <Molecule Name>
CVD-0005723

> <SMILES>
CC(=O)Nc1cnccc1C1(Cc2cccc(Cl)c2)CCOCC1

$$$$

  CDD

  0  0  0  0  0  0            999 V2000
M  END
> <Molecule Name>
CVD-0005722

> <SMILES>
Cc1ccncc1NC(=O)C1(Cc2cccc(Cl)c2)CCOCC1

$$$$

  CDD

  0  0  0  0  0  0            999 V2000
M  END
> <Molecule Name>
CVD-0005721

> <SMILES>
CC(=O)N(c1cccc(CN2CCOCC2)c1)c1cnccc1C

$$$$

  CDD

  0  0  0  0  0  0            999 V2000
M  END
> <Molecule Name>
CVD-0005720

> <SMILES>
CC(=O)Nc1cnccc1Cc1cccc(CN2CCOCC2)c1

$$$$

  CDD

  0  0  0  0  0  0            999 V2000
M  END
> <Molecule Name>
CVD-0005719

> <SMILES>
Cc1ccncc1NC(=O)Cc1cccc(CN2CCOCC2)c1

$$$$

  CDD

  0  0  0  0  0  0            999 V2000
M  END
> <Molecule Name>
CVD-0005718

> <SMILES>
CC(C(=O)Nc1cncc(C(=O)Nc2cnccc2C)c1C)c1cccc(Cl)c1

$$$$

  CDD

  0  0  0  0  0  0            999 V2000
M  END
> <Molecule Name>
CVD-0005717

> <SMILES>
CC(C(=O)Nc1cnc(cc1C)C(=O)Nc1cnccc1C)c1cccc(Cl)c1

$$$$

  CDD

  0  0  0  0  0  0            999 V2000
M  END
> <Molecule Name>
CVD-0005716

> <SMILES>
CC(C(=O)Nc1c(C)ccnc1C(=O)Nc1cnccc1C)c1cccc(Cl)c1

$$$$

  CDD

  0  0  0  0  0  0            999 V2000
M  END
> <Molecule Name>
CVD-0005715

> <SMILES>
CC(C(=O)C(C(=O)Nc1cnccc1C)c1cnccc1C)c1cccc(Cl)c1

$$$$

  CDD

  0  0  0  0  0  0            999 V2000
M  END
> <Molecule Name>
CVD-0005714

> <SMILES>
Cc1ccncc1NC(=O)C(C)(C(=O)Nc1cnccc1C)c1cccc(Cl)c1

$$$$

  CDD

  0  0  0  0  0  0            999 V2000
M  END
> <Molecule Name>
CVD-0005713

> <SMILES>
CC(C(=O)Nc1cnccc1C)c1ccc(C(=O)Nc2cnccc2C)c(Cl)c1

$$$$

  CDD

  0  0  0  0  0  0            999 V2000
M  END
> <Molecule Name>
CVD-0005712

> <SMILES>
CC(C(=O)Nc1cnccc1C)c1cc(Cl)cc(c1)C(=O)Nc1cnccc1C

$$$$

  CDD

  0  0  0  0  0  0            999 V2000
M  END
> <Molecule Name>
CVD-0005711

> <SMILES>
CC(C(=O)Nc1cnccc1C)c1cc(Cl)ccc1C(=O)Nc1cnccc1C

$$$$

  CDD

  0  0  0  0  0  0            999 V2000
M  END
> <Molecule Name>
CVD-0005710

> <SMILES>
CC(C(=O)Nc1cnccc1C)c1cccc(Cl)c1C(=O)Nc1cnccc1C

$$$$

  CDD

  0  0  0  0  0  0            999 V2000
M  END
> <Molecule Name>
CVD-0005709

> <SMILES>
CC(C(=O)Nc1cncc(c1C)-c1ccncc1NC(C)=O)c1cccc(Cl)c1

$$$$

  CDD

  0  0  0  0  0  0            999 V2000
M  END
> <Molecule Name>
CVD-0005708

> <SMILES>
CC(C(=O)Nc1cnc(cc1C)-c1ccncc1NC(C)=O)c1cccc(Cl)c1

$$$$

  CDD

  0  0  0  0  0  0            999 V2000
M  END
> <Molecule Name>
CVD-0005707

> <SMILES>
CC(C(=O)Nc1c(C)ccnc1-c1ccncc1NC(C)=O)c1cccc(Cl)c1

$$$$

  CDD

  0  0  0  0  0  0            999 V2000
M  END
> <Molecule Name>
CVD-0005706

> <SMILES>
CC(C(=O)C(c1ccncc1NC(C)=O)c1cnccc1C)c1cccc(Cl)c1

$$$$

  CDD

  0  0  0  0  0  0            999 V2000
M  END
> <Molecule Name>
CVD-0005705

> <SMILES>
CC(=O)Nc1cnccc1C(C)(C(=O)Nc1cnccc1C)c1cccc(Cl)c1

$$$$

  CDD

  0  0  0  0  0  0            999 V2000
M  END
> <Molecule Name>
CVD-0005704

> <SMILES>
CC(C(=O)Nc1cnccc1C)c1ccc(c(Cl)c1)-c1ccncc1NC(C)=O

$$$$

  CDD

  0  0  0  0  0  0            999 V2000
M  END
> <Molecule Name>
CVD-0005703

> <SMILES>
CC(C(=O)Nc1cnccc1C)c1cc(Cl)cc(c1)-c1ccncc1NC(C)=O

$$$$

  CDD

  0  0  0  0  0  0            999 V2000
M  END
> <Molecule Name>
CVD-0005702

> <SMILES>
CC(C(=O)Nc1cnccc1C)c1cc(Cl)ccc1-c1ccncc1NC(C)=O

$$$$

  CDD

  0  0  0  0  0  0            999 V2000
M  END
> <Molecule Name>
CVD-0005701

> <SMILES>
CC(C(=O)Nc1cnccc1C)c1cccc(Cl)c1-c1ccncc1NC(C)=O

$$$$

  CDD

  0  0  0  0  0  0            999 V2000
M  END
> <Molecule Name>
CVD-0005700

> <SMILES>
CC(C(=O)Nc1cnccc1CC(=O)Nc1cnccc1C)c1cccc(Cl)c1

$$$$

  CDD

  0  0  0  0  0  0            999 V2000
M  END
> <Molecule Name>
CVD-0005699

> <SMILES>
Cc1ccncc1NC(=O)CC(C(=O)Nc1cnccc1C)c1cccc(Cl)c1

$$$$

  CDD

  0  0  0  0  0  0            999 V2000
M  END
> <Molecule Name>
CVD-0005698

> <SMILES>
CC(C(=O)Nc1cnccc1Cc1ccncc1NC(C)=O)c1cccc(Cl)c1

$$$$

  CDD

  0  0  0  0  0  0            999 V2000
M  END
> <Molecule Name>
CVD-0005697

> <SMILES>
CC(=O)Nc1cnccc1CC(C(=O)Nc1cnccc1C)c1cccc(Cl)c1

$$$$

  CDD

  0  0  0  0  0  0            999 V2000
M  END
> <Molecule Name>
CVD-0005696

> <SMILES>
CC(=O)O[C@@H]1O[C@H](OC(C)=O)[C@H]2C=C(CC[C@@H]12)[C@@]1(C)CCCC(C)(C)C1

$$$$

  CDD

  0  0  0  0  0  0            999 V2000
M  END
> <Molecule Name>
CVD-0005695

> <SMILES>
CC(=O)O[C@H]1OC[C@@H]2C=C(CC[C@H]12)[C@@]1(C)CCCC(C)(C)C1

$$$$

  CDD

  0  0  0  0  0  0            999 V2000
M  END
> <Molecule Name>
CVD-0005694

> <SMILES>
CC(=O)O[C@@H]1OC[C@H]2C=C(CC[C@@H]12)C1(C)CCCCC1

$$$$

  CDD

  0  0  0  0  0  0            999 V2000
M  END
> <Molecule Name>
CVD-0005693

> <SMILES>
CC(=O)O[C@@H]1O[C@H](OC(C)=O)[C@H]2CC(=CC[C@@H]12)[C@@]1(C)CCCC(C)(C)C1

$$$$

  CDD

  0  0  0  0  0  0            999 V2000
M  END
> <Molecule Name>
CVD-0005692

> <SMILES>
CC(=O)O[C@@H]1O[C@H](OC(C)=O)[C@H]2CC(=CC[C@@H]12)[C@]1(C)CCCC(C)(C)C1

$$$$

  CDD

  0  0  0  0  0  0            999 V2000
M  END
> <Molecule Name>
CVD-0005691

> <SMILES>
Cc1cc(CN(C(=O)NC2CC2)C2(C)C(O)CCCN2Cc2ccccc2)no1

$$$$

  CDD

  0  0  0  0  0  0            999 V2000
M  END
> <Molecule Name>
CVD-0005690

> <SMILES>
CC1C(O)CCCN1C(c1cc(CN(C)C(=O)NC2CC2)no1)c1ccccc1

$$$$

  CDD

  0  0  0  0  0  0            999 V2000
M  END
> <Molecule Name>
CVD-0005689

> <SMILES>
Cc1cc(CN(CC2C(O)CCCN2Cc2ccccc2)C(=O)NC2CC2)no1

$$$$

  CDD

  0  0  0  0  0  0            999 V2000
M  END
> <Molecule Name>
CVD-0005688

> <SMILES>
CN(Cc1cc(CC2C(O)CCCN2Cc2ccccc2)on1)C(=O)NC1CC1

$$$$

  CDD

  0  0  0  0  0  0            999 V2000
M  END
> <Molecule Name>
CVD-0005687

> <SMILES>
Cc1ccc(CN(c2ccc(cc2)C(=O)Nc2cccnc2)S(C)(=O)=O)cc1

$$$$

  CDD

  0  0  0  0  0  0            999 V2000
M  END
> <Molecule Name>
CVD-0005686

> <SMILES>
CC(N(c1ccc(Cl)cc1)S(C)(=O)=O)C(=O)Nc1cccnc1

$$$$

  CDD

  0  0  0  0  0  0            999 V2000
M  END
> <Molecule Name>
CVD-0005685

> <SMILES>
CCc1ccccc1NC(=O)COc1ccccc1C(=O)Nc1cccnc1

$$$$

  CDD

  0  0  0  0  0  0            999 V2000
M  END
> <Molecule Name>
CVD-0005684

> <SMILES>
CN(C)S(=O)(=O)c1ccc(cc1)N1CC(CC1=O)C(=O)Nc1cccnc1

$$$$

  CDD

  0  0  0  0  0  0            999 V2000
M  END
> <Molecule Name>
CVD-0005683

> <SMILES>
Fc1ccc2onc(C3CCN(CC3)C(=O)CCCC(=O)Nc3cccnc3)c2c1

$$$$

  CDD

  0  0  0  0  0  0            999 V2000
M  END
> <Molecule Name>
CVD-0005682

> <SMILES>
COc1ccc(cc1)N(CC(=O)Nc1cccnc1)S(=O)(=O)c1ccc(F)cc1

$$$$

  CDD

  0  0  0  0  0  0            999 V2000
M  END
> <Molecule Name>
CVD-0005681

> <SMILES>
FC(F)(F)c1cccc(c1)N1CC(CC1=O)C(=O)Nc1cccnc1

$$$$

  CDD

  0  0  0  0  0  0            999 V2000
M  END
> <Molecule Name>
CVD-0005680

> <SMILES>
COc1ccc(OC)c(c1)N(CC(=O)Nc1cccnc1)S(=O)(=O)c1ccccc1

$$$$

  CDD

  0  0  0  0  0  0            999 V2000
M  END
> <Molecule Name>
CVD-0005679

> <SMILES>
COc1ccc(cc1)N(CCCC(=O)Nc1cccnc1)S(C)(=O)=O

$$$$

  CDD

  0  0  0  0  0  0            999 V2000
M  END
> <Molecule Name>
CVD-0005678

> <SMILES>
CS(=O)(=O)N(Cc1ccc(Cl)cc1)c1ccc(cc1)C(=O)Nc1cccnc1

$$$$

  CDD

  0  0  0  0  0  0            999 V2000
M  END
> <Molecule Name>
CVD-0005677

> <SMILES>
[O-][N+](=O)c1cc(cc(c1)C(=O)Nc1cccnc1)C(=O)Nc1cccnc1

$$$$

  CDD

  0  0  0  0  0  0            999 V2000
M  END
> <Molecule Name>
CVD-0005676

> <SMILES>
CS(=O)(=O)N(CC(=O)Nc1cccnc1)c1cc(Cl)c(Cl)cc1Cl

$$$$

  CDD

  0  0  0  0  0  0            999 V2000
M  END
> <Molecule Name>
CVD-0005675

> <SMILES>
COc1ccc(cc1)N(CC(=O)Nc1cccnc1)S(=O)(=O)c1ccc(C)cc1

$$$$

  CDD

  0  0  0  0  0  0            999 V2000
M  END
> <Molecule Name>
CVD-0005674

> <SMILES>
COc1ccc(cc1OC)N(CC(=O)Nc1cccnc1)S(=O)(=O)c1ccccc1

$$$$

  CDD

  0  0  0  0  0  0            999 V2000
M  END
> <Molecule Name>
CVD-0005673

> <SMILES>
Cc1ccccc1NS(=O)(=O)c1cc(ccc1C)C(=O)Nc1cccnc1

$$$$

  CDD

  0  0  0  0  0  0            999 V2000
M  END
> <Molecule Name>
CVD-0005672

> <SMILES>
Brc1cccc(\C=C2/SC(=S)N(CC(=O)Nc3cccnc3)C2=O)c1

$$$$

  CDD

  0  0  0  0  0  0            999 V2000
M  END
> <Molecule Name>
CVD-0005671

> <SMILES>
COc1ccc(cc1)S(=O)(=O)N(CC(=O)Nc1cccnc1)c1ccc(Cl)cc1

$$$$

  CDD

  0  0  0  0  0  0            999 V2000
M  END
> <Molecule Name>
CVD-0005670

> <SMILES>
O=C(Nc1cccnc1)c1ccc2C(=O)N(Cc3ccco3)C(=O)c2c1

$$$$

  CDD

  0  0  0  0  0  0            999 V2000
M  END
> <Molecule Name>
CVD-0005669

> <SMILES>
Cc1ccccc1CN(c1ccc(cc1)C(=O)Nc1cccnc1)S(C)(=O)=O

$$$$

  CDD

  0  0  0  0  0  0            999 V2000
M  END
> <Molecule Name>
CVD-0005668

> <SMILES>
CCC(N(c1ccccc1)S(C)(=O)=O)C(=O)Nc1cccnc1

$$$$

  CDD

  0  0  0  0  0  0            999 V2000
M  END
> <Molecule Name>
CVD-0005667

> <SMILES>
COc1ccc(cc1OC)N(C(C)C(=O)Nc1cccnc1)S(C)(=O)=O

$$$$

  CDD

  0  0  0  0  0  0            999 V2000
M  END
> <Molecule Name>
CVD-0005666

> <SMILES>
Clc1ccc(cc1Cl)S(=O)(=O)N1CCCC1C(=O)Nc1cccnc1

$$$$

  CDD

  0  0  0  0  0  0            999 V2000
M  END
> <Molecule Name>
CVD-0005665

> <SMILES>
COc1ccc(cc1Br)S(=O)(=O)N(CC(=O)Nc1cccnc1)c1ccc(C)cc1

$$$$

  CDD

  0  0  0  0  0  0            999 V2000
M  END
> <Molecule Name>
CVD-0005664

> <SMILES>
O=C(CC1NC(=O)N(C2CCCCC2)C1=O)Nc1cccnc1

$$$$

  CDD

  0  0  0  0  0  0            999 V2000
M  END
> <Molecule Name>
CVD-0005663

> <SMILES>
CC(N(c1cc(Cl)ccc1C)S(C)(=O)=O)C(=O)Nc1cccnc1

$$$$

  CDD

  0  0  0  0  0  0            999 V2000
M  END
> <Molecule Name>
CVD-0005662

> <SMILES>
COc1ccc(cc1OC)N(CC(=O)Nc1cccnc1)S(=O)(=O)c1ccc(C)cc1

$$$$

  CDD

  0  0  0  0  0  0            999 V2000
M  END
> <Molecule Name>
CVD-0005661

> <SMILES>
CC(=O)c1cn(CC(=O)Nc2cccnc2)c2ccccc12

$$$$

  CDD

  0  0  0  0  0  0            999 V2000
M  END
> <Molecule Name>
CVD-0005660

> <SMILES>
O=C(Nc1cccnc1)C1CCN(CC1)S(=O)(=O)c1ccc2ccccc2c1

$$$$

  CDD

  0  0  0  0  0  0            999 V2000
M  END
> <Molecule Name>
CVD-0005659

> <SMILES>
COc1ccc(OC)c(c1)C1C(C(=O)Nc2cccnc2)=C(C)Nc2ncnn12

$$$$

  CDD

  0  0  0  0  0  0            999 V2000
M  END
> <Molecule Name>
CVD-0005658

> <SMILES>
O=C(Nc1cccnc1)c1ccc(CN(c2ccccc2)S(=O)(=O)c2ccccc2)cc1

$$$$

  CDD

  0  0  0  0  0  0            999 V2000
M  END
> <Molecule Name>
CVD-0005657

> <SMILES>
Cc1ccccc1NS(=O)(=O)c1cc(ccc1Cl)C(=O)Nc1cccnc1

$$$$

  CDD

  0  0  0  0  0  0            999 V2000
M  END
> <Molecule Name>
CVD-0005656

> <SMILES>
CCc1ccc(cc1)N(C(C)C(=O)Nc1cccnc1)S(C)(=O)=O

$$$$

  CDD

  0  0  0  0  0  0            999 V2000
M  END
> <Molecule Name>
CVD-0005655

> <SMILES>
CC(=O)c1cn(CCC(=O)Nc2cccnc2)c2ccccc12

$$$$

  CDD

  0  0  0  0  0  0            999 V2000
M  END
> <Molecule Name>
CVD-0005654

> <SMILES>
COc1ccc(cc1)-c1ccc(=O)n(CC(=O)Nc2cccnc2)n1

$$$$

  CDD

  0  0  0  0  0  0            999 V2000
M  END
> <Molecule Name>
CVD-0005653

> <SMILES>
COc1ccc(cc1OC)-c1cc(nc(SCC(=O)Nc2cccnc2)n1)C(F)(F)F

$$$$

  CDD

  0  0  0  0  0  0            999 V2000
M  END
> <Molecule Name>
CVD-0005652

> <SMILES>
CS(=O)(=O)N(CC(=O)Nc1cccnc1)c1ccc2OCCOc2c1

$$$$

  CDD

  0  0  0  0  0  0            999 V2000
M  END
> <Molecule Name>
CVD-0005651

> <SMILES>
COc1cccc(c1)N(CC(=O)Nc1cccnc1)S(=O)(=O)c1ccccc1

$$$$

  CDD

  0  0  0  0  0  0            999 V2000
M  END
> <Molecule Name>
CVD-0005650

> <SMILES>
COC(=O)c1ccc(\C=C2/SC(=S)N(CCCC(=O)Nc3cccnc3)C2=O)cc1

$$$$

  CDD

  0  0  0  0  0  0            999 V2000
M  END
> <Molecule Name>
CVD-0005649

> <SMILES>
Fc1ccc(cc1)-c1cc(cc(SCC(=O)Nc2cccnc2)n1)C(F)(F)F

$$$$

  CDD

  0  0  0  0  0  0            999 V2000
M  END
> <Molecule Name>
CVD-0005648

> <SMILES>
Oc1ccc(cc1C(=O)Nc1cccnc1)S(=O)(=O)N1CCOCC1

$$$$

  CDD

  0  0  0  0  0  0            999 V2000
M  END
> <Molecule Name>
CVD-0005647

> <SMILES>
[O-][N+](=O)c1cccc(c1)-c1nn(CC(=O)Nc2cccnc2)c(=O)c2ccccc12

$$$$

  CDD

  0  0  0  0  0  0            999 V2000
M  END
> <Molecule Name>
CVD-0005646

> <SMILES>
COc1ccc(cc1Cl)N(CC(=O)Nc1cccnc1)S(=O)(=O)c1ccccc1

$$$$

  CDD

  0  0  0  0  0  0            999 V2000
M  END
> <Molecule Name>
CVD-0005645

> <SMILES>
COCCN1C(=O)c2ccc(cc2C1=O)C(=O)Nc1cccnc1

$$$$

  CDD

  0  0  0  0  0  0            999 V2000
M  END
> <Molecule Name>
CVD-0005644

> <SMILES>
COc1ccc(cc1)C1C(C(=O)Nc2cccnc2)=C(C)Nc2nnnn12

$$$$

  CDD

  0  0  0  0  0  0            999 V2000
M  END
> <Molecule Name>
CVD-0005643

> <SMILES>
CS(=O)(=O)N(Cc1ccccc1Cl)c1ccc(cc1)C(=O)Nc1cccnc1

$$$$

  CDD

  0  0  0  0  0  0            999 V2000
M  END
> <Molecule Name>
CVD-0005642

> <SMILES>
CCC(N(c1ccc(F)cc1)S(C)(=O)=O)C(=O)Nc1cccnc1

$$$$

  CDD

  0  0  0  0  0  0            999 V2000
M  END
> <Molecule Name>
CVD-0005641

> <SMILES>
COc1ccc(cc1Cl)N(CC(=O)Nc1cccnc1)S(C)(=O)=O

$$$$

  CDD

  0  0  0  0  0  0            999 V2000
M  END
> <Molecule Name>
CVD-0005640

> <SMILES>
COc1ccc(cc1C(=O)Nc1cccnc1)S(=O)(=O)N1CCOCC1

$$$$

  CDD

  0  0  0  0  0  0            999 V2000
M  END
> <Molecule Name>
CVD-0005639

> <SMILES>
O=C(Nc1cccnc1)c1cc(cs1)S(=O)(=O)N1CCOCC1

$$$$

  CDD

  0  0  0  0  0  0            999 V2000
M  END
> <Molecule Name>
CVD-0005638

> <SMILES>
FC(F)(F)c1cc(nc(SCC(=O)Nc2cccnc2)n1)-c1cccs1

$$$$

  CDD

  0  0  0  0  0  0            999 V2000
M  END
> <Molecule Name>
CVD-0005637

> <SMILES>
COc1ccc(cc1Cl)N(CC(=O)Nc1cccnc1)S(=O)(=O)c1ccc(C)cc1

$$$$

  CDD

  0  0  0  0  0  0            999 V2000
M  END
> <Molecule Name>
CVD-0005636

> <SMILES>
COc1ccc(N2CC(CC2=O)C(=O)Nc2cccnc2)c(OC)c1

$$$$

  CDD

  0  0  0  0  0  0            999 V2000
M  END
> <Molecule Name>
CVD-0005635

> <SMILES>
CC1=C(C(C2=C(CCCC2=O)N1)c1cccc(c1)[N+]([O-])=O)C(=O)Nc1cccnc1

$$$$

  CDD

  0  0  0  0  0  0            999 V2000
M  END
> <Molecule Name>
CVD-0005634

> <SMILES>
CC(N(c1cc(Cl)ccc1Cl)S(C)(=O)=O)C(=O)Nc1cccnc1

$$$$

  CDD

  0  0  0  0  0  0            999 V2000
M  END
> <Molecule Name>
CVD-0005633

> <SMILES>
O=C(CN(c1ccc2OCCOc2c1)S(=O)(=O)c1ccccc1)Nc1cccnc1

$$$$

  CDD

  0  0  0  0  0  0            999 V2000
M  END
> <Molecule Name>
CVD-0005632

> <SMILES>
Cc1c(Br)c(nn1CC(=O)Nc1cccnc1)[N+]([O-])=O

$$$$

  CDD

  0  0  0  0  0  0            999 V2000
M  END
> <Molecule Name>
CVD-0005631

> <SMILES>
CNC(=O)COc1ccccc1C(=O)Nc1cccnc1

$$$$

  CDD

  0  0  0  0  0  0            999 V2000
M  END
> <Molecule Name>
CVD-0005630

> <SMILES>
CCC(N(c1ccccc1F)S(C)(=O)=O)C(=O)Nc1cccnc1

$$$$

  CDD

  0  0  0  0  0  0            999 V2000
M  END
> <Molecule Name>
CVD-0005629

> <SMILES>
CC(N(c1ccc(F)cc1)S(C)(=O)=O)C(=O)Nc1cccnc1

$$$$

  CDD

  0  0  0  0  0  0            999 V2000
M  END
> <Molecule Name>
CVD-0005628

> <SMILES>
COc1cc(OC)c(cc1Cl)C1=NOC(C1)C(=O)Nc1cc(C)n(CC(=O)Nc2cccnc2)n1

$$$$

  CDD

  0  0  0  0  0  0            999 V2000
M  END
> <Molecule Name>
CVD-0005627

> <SMILES>
CC(N(c1cc(C)ccc1C)S(C)(=O)=O)C(=O)Nc1cccnc1

$$$$

  CDD

  0  0  0  0  0  0            999 V2000
M  END
> <Molecule Name>
CVD-0005626

> <SMILES>
COc1ccc(cc1OC)S(=O)(=O)N(CC(=O)Nc1cccnc1)c1cc(Cl)ccc1OC

$$$$

  CDD

  0  0  0  0  0  0            999 V2000
M  END
> <Molecule Name>
CVD-0005625

> <SMILES>
O=C(Nc1cccnc1)C1CCN(CC1)S(=O)(=O)c1ccc(Oc2ccccc2)cc1

$$$$

  CDD

  0  0  0  0  0  0            999 V2000
M  END
> <Molecule Name>
CVD-0005624

> <SMILES>
O=C(CN1C(=O)COc2ccccc12)Nc1cccnc1

$$$$

  CDD

  0  0  0  0  0  0            999 V2000
M  END
> <Molecule Name>
CVD-0005623

> <SMILES>
O=C(Nc1cccnc1)c1ccc(CS(=O)(=O)N2CCOCC2)cc1

$$$$

  CDD

  0  0  0  0  0  0            999 V2000
M  END
> <Molecule Name>
CVD-0005622

> <SMILES>
CC1=C(C(c2ccc(cc2)[N+]([O-])=O)n2ncnc2N1)C(=O)Nc1cccnc1

$$$$

  CDD

  0  0  0  0  0  0            999 V2000
M  END
> <Molecule Name>
CVD-0005621

> <SMILES>
COc1cccc(c1)N(C(C)C(=O)Nc1cccnc1)S(C)(=O)=O

$$$$

  CDD

  0  0  0  0  0  0            999 V2000
M  END
> <Molecule Name>
CVD-0005620

> <SMILES>
COc1ccc(cc1OC)S(=O)(=O)N(CC(=O)Nc1cccnc1)c1ccc(Cl)cc1

$$$$

  CDD

  0  0  0  0  0  0            999 V2000
M  END
> <Molecule Name>
CVD-0005619

> <SMILES>
O=C(Nc1cccnc1)c1ccc(cc1)S(=O)(=O)N1CCOCC1

$$$$

  CDD

  0  0  0  0  0  0            999 V2000
M  END
> <Molecule Name>
CVD-0005618

> <SMILES>
COc1ccc(Cl)cc1N(CC(=O)Nc1cccnc1)S(=O)(=O)c1ccc(C)c(c1)[N+]([O-])=O

$$$$

  CDD

  0  0  0  0  0  0            999 V2000
M  END
> <Molecule Name>
CVD-0005617

> <SMILES>
O=C(Nc1cccnc1)C1CN(C(=O)C1)c1ccc2OCCOc2c1

$$$$

  CDD

  0  0  0  0  0  0            999 V2000
M  END
> <Molecule Name>
CVD-0005616

> <SMILES>
CC(N(c1cccc(C)c1)S(C)(=O)=O)C(=O)Nc1cccnc1

$$$$

  CDD

  0  0  0  0  0  0            999 V2000
M  END
> <Molecule Name>
CVD-0005615

> <SMILES>
O=C(Nc1cccnc1)c1cccc(c1)S(=O)(=O)Nc1ccccc1

$$$$

  CDD

  0  0  0  0  0  0            999 V2000
M  END
> <Molecule Name>
CVD-0005614

> <SMILES>
COc1ccc(cc1)N(C(C)C(=O)Nc1cccnc1)S(C)(=O)=O

$$$$

  CDD

  0  0  0  0  0  0            999 V2000
M  END
> <Molecule Name>
CVD-0005613

> <SMILES>
Cc1cc(C)n(n1)-c1ccc(=O)n(CC(=O)Nc2cccnc2)n1

$$$$

  CDD

  0  0  0  0  0  0            999 V2000
M  END
> <Molecule Name>
CVD-0005612

> <SMILES>
CC(N(c1cccc(F)c1)S(C)(=O)=O)C(=O)Nc1cccnc1

$$$$

  CDD

  0  0  0  0  0  0            999 V2000
M  END
> <Molecule Name>
CVD-0005611

> <SMILES>
CCC(N(c1cccc(C)c1)S(C)(=O)=O)C(=O)Nc1cccnc1

$$$$

  CDD

  0  0  0  0  0  0            999 V2000
M  END
> <Molecule Name>
CVD-0005610

> <SMILES>
CCC(C(=O)Nc1cccnc1)n1c(=O)[nH]c2ccccc2c1=O

$$$$

  CDD

  0  0  0  0  0  0            999 V2000
M  END
> <Molecule Name>
CVD-0005609

> <SMILES>
O=C(Nc1cccnc1)c1cccc(c1)S(=O)(=O)N1CCOCC1

$$$$

  CDD

  0  0  0  0  0  0            999 V2000
M  END
> <Molecule Name>
CVD-0005608

> <SMILES>
O=C(CCCN1C(=S)S\C(=C/c2ccc3OCOc3c2)C1=O)Nc1cccnc1

$$$$

  CDD

  0  0  0  0  0  0            999 V2000
M  END
> <Molecule Name>
CVD-0005607

> <SMILES>
COc1cccc(C2C(C(=O)Nc3cccnc3)=C(C)Nc3ncnn23)c1OC

$$$$

  CDD

  0  0  0  0  0  0            999 V2000
M  END
> <Molecule Name>
CVD-0005606

> <SMILES>
CC(N(c1cccc(Cl)c1)S(C)(=O)=O)C(=O)Nc1cccnc1

$$$$

  CDD

  0  0  0  0  0  0            999 V2000
M  END
> <Molecule Name>
CVD-0005605

> <SMILES>
COc1ccc(cc1OC)S(=O)(=O)N(CC(=O)Nc1cccnc1)c1ccc(C)cc1

$$$$

  CDD

  0  0  0  0  0  0            999 V2000
M  END
> <Molecule Name>
CVD-0005604

> <SMILES>
CC(N(c1cc(C)cc(C)c1)S(C)(=O)=O)C(=O)Nc1cccnc1

$$$$

  CDD

  0  0  0  0  0  0            999 V2000
M  END
> <Molecule Name>
CVD-0005603

> <SMILES>
CCC(N(c1cccc(Cl)c1)S(C)(=O)=O)C(=O)Nc1cccnc1

$$$$

  CDD

  0  0  0  0  0  0            999 V2000
M  END
> <Molecule Name>
CVD-0005602

> <SMILES>
CC(=O)Nc1ccc(cc1)N1CC(CC1=O)C(=O)Nc1cccnc1

$$$$

  CDD

  0  0  0  0  0  0            999 V2000
M  END
> <Molecule Name>
CVD-0005601

> <SMILES>
Cc1cc(OCC(=O)Nc2cccnc2)ccc1[N+]([O-])=O

$$$$

  CDD

  0  0  0  0  0  0            999 V2000
M  END
> <Molecule Name>
CVD-0005600

> <SMILES>
Cc1ccc(cc1C(=O)Nc1cccnc1)S(=O)(=O)N1CCOCC1

$$$$

  CDD

  0  0  0  0  0  0            999 V2000
M  END
> <Molecule Name>
CVD-0005599

> <SMILES>
CC1=C(C(C2=C(CCCC2=O)N1)c1ccc(cc1)[N+]([O-])=O)C(=O)Nc1cccnc1

$$$$

  CDD

  0  0  0  0  0  0            999 V2000
M  END
> <Molecule Name>
CVD-0005598

> <SMILES>
COCCCn1c(cc2c1nc1ccccn1c2=O)C(=O)Nc1cccnc1

$$$$

  CDD

  0  0  0  0  0  0            999 V2000
M  END
> <Molecule Name>
CVD-0005597

> <SMILES>
Brc1ccc(cc1C(=O)Nc1cccnc1)S(=O)(=O)N1CCOCC1

$$$$

  CDD

  0  0  0  0  0  0            999 V2000
M  END
> <Molecule Name>
CVD-0005596

> <SMILES>
Fc1ccc(cc1C(=O)Nc1cccnc1)S(=O)(=O)N1CCOCC1

$$$$

  CDD

  0  0  0  0  0  0            999 V2000
M  END
> <Molecule Name>
CVD-0005595

> <SMILES>
CC1=C(C(C2=C(CC(C)(C)CC2=O)N1)c1cccnc1)C(=O)Nc1cccnc1

$$$$

  CDD

  0  0  0  0  0  0            999 V2000
M  END
> <Molecule Name>
CVD-0005594

> <SMILES>
CC(=O)c1cccc(c1)N(CC(=O)Nc1cccnc1)S(C)(=O)=O

$$$$

  CDD

  0  0  0  0  0  0            999 V2000
M  END
> <Molecule Name>
CVD-0005593

> <SMILES>
Clc1ccc2OCC(=O)N(CC(=O)Nc3cccnc3)c2c1

$$$$

  CDD

  0  0  0  0  0  0            999 V2000
M  END
> <Molecule Name>
CVD-0005592

> <SMILES>
CC1=C(C(C2=C(CCCC2=O)N1)c1ccc2OCOc2c1)C(=O)Nc1cccnc1

$$$$

  CDD

  0  0  0  0  0  0            999 V2000
M  END
> <Molecule Name>
CVD-0005591

> <SMILES>
CS(=O)(=O)N(CC(=O)Nc1cccnc1)c1cccc(c1)[N+]([O-])=O

$$$$

  CDD

  0  0  0  0  0  0            999 V2000
M  END
> <Molecule Name>
CVD-0005590

> <SMILES>
CC1=C(C(c2cccc(O)c2)n2nc(SCc3ccccc3)nc2N1)C(=O)Nc1cccnc1

$$$$

  CDD

  0  0  0  0  0  0            999 V2000
M  END
> <Molecule Name>
CVD-0005589

> <SMILES>
COc1ccc(cc1N(CC(=O)Nc1cccnc1)S(C)(=O)=O)[N+]([O-])=O

$$$$

  CDD

  0  0  0  0  0  0            999 V2000
M  END
> <Molecule Name>
CVD-0005588

> <SMILES>
Fc1ccc(cc1)N(CC(=O)Nc1cccnc1)S(=O)(=O)c1ccc2OCCOc2c1

$$$$

  CDD

  0  0  0  0  0  0            999 V2000
M  END
> <Molecule Name>
CVD-0005587

> <SMILES>
O=C1N([Se]C2=CC=CC=C12)C1=CC=CC=C1

$$$$

  CDD

  0  0  0  0  0  0            999 V2000
M  END
> <Molecule Name>
CVD-0005586

> <SMILES>
O=S(=O)(NC1(Cc2ccccc2)CCOCC1)c1cccnc1

$$$$

  CDD

  0  0  0  0  0  0            999 V2000
M  END
> <Molecule Name>
CVD-0005585

> <SMILES>
O=C(Nc1cccnc1)NC1(Cc2ccccc2)CCOCC1

$$$$

  CDD

  0  0  0  0  0  0            999 V2000
M  END
> <Molecule Name>
CVD-0005584

> <SMILES>
O=S(=O)(Cc1ccccc1)Nc1cnccc1N1CCCC1

$$$$

  CDD

  0  0  0  0  0  0            999 V2000
M  END
> <Molecule Name>
CVD-0005583

> <SMILES>
O=S(=O)(Cc1ccccc1)Nc1ncccc1C#N

$$$$

  CDD

  0  0  0  0  0  0            999 V2000
M  END
> <Molecule Name>
CVD-0005582

> <SMILES>
O=S(=O)(Cc1noc(n1)C1CC1)Nc1cccnc1

$$$$

  CDD

  0  0  0  0  0  0            999 V2000
M  END
> <Molecule Name>
CVD-0005581

> <SMILES>
Fc1ccc(CS(=O)(=O)Nc2cccnc2)cc1

$$$$

  CDD

  0  0  0  0  0  0            999 V2000
M  END
> <Molecule Name>
CVD-0005580

> <SMILES>
O=S(=O)(CCc1ccccc1)Nc1cccnc1

$$$$

  CDD

  0  0  0  0  0  0            999 V2000
M  END
> <Molecule Name>
CVD-0005579

> <SMILES>
Oc1ccc(cc1)-c1coc2cc(O)cc(O)c2c1=O

$$$$

  CDD

  0  0  0  0  0  0            999 V2000
M  END
> <Molecule Name>
CVD-0005578

> <SMILES>
O=c1c(coc2ccccc12)-c1cccnc1

$$$$

  CDD

  0  0  0  0  0  0            999 V2000
M  END
> <Molecule Name>
CVD-0005577

> <SMILES>
Oc1ccc(cc1)C1COc2cc(O)ccc2C1

$$$$

  CDD

  0  0  0  0  0  0            999 V2000
M  END
> <Molecule Name>
CVD-0005576

> <SMILES>
Oc1ccc(cc1)-c1coc2cc(O)ccc2c1=O

$$$$

  CDD

  0  0  0  0  0  0            999 V2000
M  END
> <Molecule Name>
CVD-0005575

> <SMILES>
O=c1c(coc2ccccc12)-c1ccccc1

$$$$

  CDD

  0  0  0  0  0  0            999 V2000
M  END
> <Molecule Name>
CVD-0005574

> <SMILES>
OC(COc1cccc2oc(cc(=O)c12)C(O)=O)COc1cccc2oc(cc(=O)c12)C(O)=O

$$$$

  CDD

  0  0  0  0  0  0            999 V2000
M  END
> <Molecule Name>
CVD-0005573

> <SMILES>
NC(N)=NC(=N)N1CCOCC1

$$$$

  CDD

  0  0  0  0  0  0            999 V2000
M  END
> <Molecule Name>
CVD-0005572

> <SMILES>
CC(=O)c1ccc(C)cc1NC(C(N)=O)c1c(Cl)cccc1Cl

$$$$

  CDD

  0  0  0  0  0  0            999 V2000
M  END
> <Molecule Name>
CVD-0005571

> <SMILES>
COc1cc2n(cc(C(O)=O)c(=O)c2cc1Cc1cccc(Cl)c1F)C(CO)C(C)C

$$$$

  CDD

  0  0  0  0  0  0            999 V2000
M  END
> <Molecule Name>
CVD-0005570

> <SMILES>
CC(C)(C)NC(=O)NC(C(=O)N1CC2C(C1C(=O)NC(CC1CCC1)C(=O)C(N)=O)C2(C)C)C(C)(C)C

$$$$

  CDD

  0  0  0  0  0  0            999 V2000
M  END
> <Molecule Name>
CVD-0005569

> <SMILES>
Cn1c2ncn(CC(O)CO)c2c(=O)n(C)c1=O

$$$$

  CDD

  0  0  0  0  0  0            999 V2000
M  END
> <Molecule Name>
CVD-0005568

> <SMILES>
COc1ccccc1OCC(O)CO

$$$$

  CDD

  0  0  0  0  0  0            999 V2000
M  END
> <Molecule Name>
CVD-0005567

> <SMILES>
CCCC1(CCc2ccccc2)CC(O)=C(C(CC)c2cccc(NS(=O)(=O)c3ccc(cn3)C(F)(F)F)c2)C(=O)O1

$$$$

  CDD

  0  0  0  0  0  0            999 V2000
M  END
> <Molecule Name>
CVD-0005566

> <SMILES>
CC(C)(C)NCC(O)c1ccc(O)c(CO)c1

$$$$

  CDD

  0  0  0  0  0  0            999 V2000
M  END
> <Molecule Name>
CVD-0005565

> <SMILES>
CC(C)CN(CC(O)C(Cc1ccccc1)NC(=O)OC1COC2OCCC12)S(=O)(=O)c1ccc(N)cc1

$$$$

  CDD

  0  0  0  0  0  0            999 V2000
M  END
> <Molecule Name>
CVD-0005564

> <SMILES>
Cc1cc(\C=C\C#N)cc(C)c1Nc1ccnc(Nc2ccc(cc2)C#N)n1

$$$$

  CDD

  0  0  0  0  0  0            999 V2000
M  END
> <Molecule Name>
CVD-0005563

> <SMILES>
NC(=O)c1ncn(n1)C1OC(CO)C(O)C1O

$$$$

  CDD

  0  0  0  0  0  0            999 V2000
M  END
> <Molecule Name>
CVD-0005562

> <SMILES>
Cc1nnc(o1)C(=O)NC(C)(C)c1nc(C(=O)NCc2ccc(F)cc2)c(O)c(=O)n1C

$$$$

  CDD

  0  0  0  0  0  0            999 V2000
M  END
> <Molecule Name>
CVD-0005561

> <SMILES>
COc1cc(cc(OC)c1OC)C1C2C(COC2=O)C(O)c2cc3OCOc3cc12

$$$$

  CDD

  0  0  0  0  0  0            999 V2000
M  END
> <Molecule Name>
CVD-0005560

> <SMILES>
CCC(CC)C(NC(C)=O)C1C(O)C(CC1NC(N)=N)C(O)=O

$$$$

  CDD

  0  0  0  0  0  0            999 V2000
M  END
> <Molecule Name>
CVD-0005559

> <SMILES>
Nc1nc(=O)c2ncn(CCC(CO)CO)c2[nH]1

$$$$

  CDD

  0  0  0  0  0  0            999 V2000
M  END
> <Molecule Name>
CVD-0005558

> <SMILES>
CCOC(=O)C1=CC(OC(CC)CC)C(NC(C)=O)C(N)C1

$$$$

  CDD

  0  0  0  0  0  0            999 V2000
M  END
> <Molecule Name>
CVD-0005557

> <SMILES>
Cc1c(O)cccc1C(=O)NC(CSc1ccccc1)C(O)CN1CC2CCCCC2CC1C(=O)NC(C)(C)C

$$$$

  CDD

  0  0  0  0  0  0            999 V2000
M  END
> <Molecule Name>
CVD-0005556

> <SMILES>
NCCc1ccc(O)c(O)c1

$$$$

  CDD

  0  0  0  0  0  0            999 V2000
M  END
> <Molecule Name>
CVD-0005555

> <SMILES>
COc1ccc(CC(C)NCC(O)c2ccc(O)c(NC=O)c2)cc1

$$$$

  CDD

  0  0  0  0  0  0            999 V2000
M  END
> <Molecule Name>
CVD-0005554

> <SMILES>
FCc1cc(N(Cc2ccsc2)C(=O)Cn2nnc3ccccc23)c(F)c(F)c1-c1ccccc1

$$$$

  CDD

  0  0  0  0  0  0            999 V2000
M  END
> <Molecule Name>
CVD-0005553

> <SMILES>
Oc1cc(CN(C(=O)Cn2nnc3ccccc23)c2cc(CF)c(-c3ccccc3)c(Cl)c2F)cs1

$$$$

  CDD

  0  0  0  0  0  0            999 V2000
M  END
> <Molecule Name>
CVD-0005552

> <SMILES>
CC(=O)NCCC1=C2C=C(Cl)C=C(C(CN(Cc3cc(C)on3)C(=O)NC3CC3)c3nnc(C)s3)C2N=C1

$$$$

  CDD

  0  0  0  0  0  0            999 V2000
M  END
> <Molecule Name>
CVD-0005551

> <SMILES>
CC(=O)NCCC1=C2C=C(C=C(C(CN(Cc3cc(C)on3)C(=O)NC3CC3)c3nnc(C)s3)C2N=C1)C#N

$$$$

  CDD

  0  0  0  0  0  0            999 V2000
M  END
> <Molecule Name>
CVD-0005550

> <SMILES>
CC(=O)NCCC1=C2C=C(F)C=C(C(CN(Cc3cc(C)on3)C(=O)NC3CC3)c3nnc(C)s3)C2N=C1

$$$$

  CDD

  0  0  0  0  0  0            999 V2000
M  END
> <Molecule Name>
CVD-0005549

> <SMILES>
Cc1cc(CN(CC(=O)c2cc(cc3CC(=Nc23)S(N)(=O)=O)C#N)C(=O)NC2CC2)no1

$$$$

  CDD

  0  0  0  0  0  0            999 V2000
M  END
> <Molecule Name>
CVD-0005548

> <SMILES>
Cc1cc(CN(CC(=O)c2cc(F)cc3CC(=Nc23)S(N)(=O)=O)C(=O)NC2CC2)no1

$$$$

  CDD

  0  0  0  0  0  0            999 V2000
M  END
> <Molecule Name>
CVD-0005547

> <SMILES>
CN1CCN(C(=O)CN(Cc2cc(C)on2)C(=O)NC2CC2)c2cc(ccc12)S(N)(=O)=O

$$$$

  CDD

  0  0  0  0  0  0            999 V2000
M  END
> <Molecule Name>
CVD-0005546

> <SMILES>
NC(N)N\C=C\NC1CC(CCN1C(=O)CCl)C(=O)Nc1ccc(O)cc1

$$$$

  CDD

  0  0  0  0  0  0            999 V2000
M  END
> <Molecule Name>
CVD-0005545

> <SMILES>
OC1CC(N(C1)C(=O)Nc1cnccc1C(F)(F)F)c1ccc(F)c(F)c1

$$$$

  CDD

  0  0  0  0  0  0            999 V2000
M  END
> <Molecule Name>
CVD-0005544

> <SMILES>
Fc1ccc2OCCC(NC(=O)Nn3cnc4ccccc34)c2c1

$$$$

  CDD

  0  0  0  0  0  0            999 V2000
M  END
> <Molecule Name>
CVD-0005543

> <SMILES>
CC(C#N)C(=O)NC(CNC(=O)Cn1nccc1C)c1ccccc1

$$$$

  CDD

  0  0  0  0  0  0            999 V2000
M  END
> <Molecule Name>
CVD-0005542

> <SMILES>
COc1ccncc1NC(=O)Cn1ccc2ccc(Br)cc12

$$$$

  CDD

  0  0  0  0  0  0            999 V2000
M  END
> <Molecule Name>
CVD-0005541

> <SMILES>
Cc1ccncc1C(=O)NCc1ccc2CN(Cc2c1)C(=O)CC(F)(F)F

$$$$

  CDD

  0  0  0  0  0  0            999 V2000
M  END
> <Molecule Name>
CVD-0005540

> <SMILES>
CC(=O)Nc1ccncc1NC(=O)C1Cc2ccc(F)cc12

$$$$

  CDD

  0  0  0  0  0  0            999 V2000
M  END
> <Molecule Name>
CVD-0005539

> <SMILES>
COc1ccc(Br)cc1C(N)C(=O)Nc1cnccc1C

$$$$

  CDD

  0  0  0  0  0  0            999 V2000
M  END
> <Molecule Name>
CVD-0005538

> <SMILES>
CCn1cc(CC(=O)Nc2cccnc2F)c2ccccc12

$$$$

  CDD

  0  0  0  0  0  0            999 V2000
M  END
> <Molecule Name>
CVD-0005537

> <SMILES>
Cc1ccnc(CNC(=O)NC(c2cccc(F)c2)c2cccc(Cl)c2)c1

$$$$

  CDD

  0  0  0  0  0  0            999 V2000
M  END
> <Molecule Name>
CVD-0005536

> <SMILES>
Cc1c(cnc2ccccc12)C(=O)NC(CC(O)=O)c1cccc(Cl)c1

$$$$

  CDD

  0  0  0  0  0  0            999 V2000
M  END
> <Molecule Name>
CVD-0005535

> <SMILES>
COc1ccncc1NC(=O)Cc1ccc(Cl)c2cccnc12

$$$$

  CDD

  0  0  0  0  0  0            999 V2000
M  END
> <Molecule Name>
CVD-0005534

> <SMILES>
CC(NC(=O)Nc1cccc(c1)N1CCCCC1=O)c1ccn[nH]1

$$$$

  CDD

  0  0  0  0  0  0            999 V2000
M  END
> <Molecule Name>
CVD-0005533

> <SMILES>
CCc1nc2ccccc2n1CC(=O)Nc1c(F)ccnc1F

$$$$

  CDD

  0  0  0  0  0  0            999 V2000
M  END
> <Molecule Name>
CVD-0005532

> <SMILES>
CCn1c2ccccc2n(CC(=O)Nc2c(C)ccnc2C)c1=O

$$$$

  CDD

  0  0  0  0  0  0            999 V2000
M  END
> <Molecule Name>
CVD-0005531

> <SMILES>
COc1ccc2CCCC(C(=O)Nc3cncnc3C)c2c1

$$$$

  CDD

  0  0  0  0  0  0            999 V2000
M  END
> <Molecule Name>
CVD-0005530

> <SMILES>
CCC(C)CC(=O)N1CCCC(CC1)NC(=O)Cn1c(C)cc(C)nc1=O

$$$$

  CDD

  0  0  0  0  0  0            999 V2000
M  END
> <Molecule Name>
CVD-0005529

> <SMILES>
CSc1ccncc1NC(=O)Cc1ccc2CCCCc2c1

$$$$

  CDD

  0  0  0  0  0  0            999 V2000
M  END
> <Molecule Name>
CVD-0005528

> <SMILES>
Cc1ccncc1NC(=O)CN1C(=O)COc2ccc(Cl)cc12

$$$$

  CDD

  0  0  0  0  0  0            999 V2000
M  END
> <Molecule Name>
CVD-0005527

> <SMILES>
Cc1ccc2occ(CC(=O)Nc3cncc4ccccc34)c2c1

$$$$

  CDD

  0  0  0  0  0  0            999 V2000
M  END
> <Molecule Name>
CVD-0005526

> <SMILES>
CC(C(=O)Nc1c(C)ccnc1C)c1ccc(F)c(F)c1

$$$$

  CDD

  0  0  0  0  0  0            999 V2000
M  END
> <Molecule Name>
CVD-0005525

> <SMILES>
COc1ccncc1NC(=O)C(C)(C)c1cc(F)cc(c1)C#N

$$$$

  CDD

  0  0  0  0  0  0            999 V2000
M  END
> <Molecule Name>
CVD-0005524

> <SMILES>
COc1ccncc1NC(=O)Cc1csc2ccc(Cl)cc12

$$$$

  CDD

  0  0  0  0  0  0            999 V2000
M  END
> <Molecule Name>
CVD-0005523

> <SMILES>
COc1ccc2CCCC(C(=O)Nc3cnccc3-n3cccn3)c2c1

$$$$

  CDD

  0  0  0  0  0  0            999 V2000
M  END
> <Molecule Name>
CVD-0005522

> <SMILES>
O=C(NCc1cccc(COc2ccccc2)c1)Nn1cnc2ccccc12

$$$$

  CDD

  0  0  0  0  0  0            999 V2000
M  END
> <Molecule Name>
CVD-0005521

> <SMILES>
Cc1ccncc1NC(=O)Cn1ccc2ccc(Cl)cc12

$$$$

  CDD

  0  0  0  0  0  0            999 V2000
M  END
> <Molecule Name>
CVD-0005520

> <SMILES>
Clc1cc(CC(=O)Nc2cnccc2-c2ccccc2)cc2OCCOc12

$$$$

  CDD

  0  0  0  0  0  0            999 V2000
M  END
> <Molecule Name>
CVD-0005519

> <SMILES>
Cc1ccn(CC(=O)NCc2nccn2CCc2ccccc2)c(=O)c1

$$$$

  CDD

  0  0  0  0  0  0            999 V2000
M  END
> <Molecule Name>
CVD-0005518

> <SMILES>
COc1ccc2cccc(CC(=O)Nc3c(F)ccnc3F)c2c1

$$$$

  CDD

  0  0  0  0  0  0            999 V2000
M  END
> <Molecule Name>
CVD-0005517

> <SMILES>
CCC(O)(C(=O)Nc1cnccc1C)c1cccc(Cl)c1

$$$$

  CDD

  0  0  0  0  0  0            999 V2000
M  END
> <Molecule Name>
CVD-0005516

> <SMILES>
Brc1ccc2NC(=O)CC(C(=O)Nn3cnc4ccccc34)c2c1

$$$$

  CDD

  0  0  0  0  0  0            999 V2000
M  END
> <Molecule Name>
CVD-0005515

> <SMILES>
CN(C)c1ncncc1NC(=O)C(NC(C)=O)c1cccc(Br)c1

$$$$

  CDD

  0  0  0  0  0  0            999 V2000
M  END
> <Molecule Name>
CVD-0005514

> <SMILES>
Cc1ncncc1NC(=O)C1(CC1)c1cc(F)cc(c1)C(F)(F)F

$$$$

  CDD

  0  0  0  0  0  0            999 V2000
M  END
> <Molecule Name>
CVD-0005513

> <SMILES>
COc1ccncc1NC(=O)Cc1cc(F)c(F)cc1F

$$$$

  CDD

  0  0  0  0  0  0            999 V2000
M  END
> <Molecule Name>
CVD-0005512

> <SMILES>
Cc1ccnc(C)c1NC(=O)NCc1cccc(c1)N1CCOCC1

$$$$

  CDD

  0  0  0  0  0  0            999 V2000
M  END
> <Molecule Name>
CVD-0005511

> <SMILES>
O=C(Cc1cccc(OCC#N)c1)Nn1cnc2ccccc12

$$$$

  CDD

  0  0  0  0  0  0            999 V2000
M  END
> <Molecule Name>
CVD-0005510

> <SMILES>
Fc1ccc2OCCC(NC(=O)Nc3cccnc3Cl)c2c1

$$$$

  CDD

  0  0  0  0  0  0            999 V2000
M  END
> <Molecule Name>
CVD-0005509

> <SMILES>
CCC(OC)C(=O)N1Cc2ccc(CNC(=O)c3cnccc3C)cc2C1

$$$$

  CDD

  0  0  0  0  0  0            999 V2000
M  END
> <Molecule Name>
CVD-0005508

> <SMILES>
COCC(NC(=O)CC1C(=O)Nc2ccc(F)cc12)c1cccc(Br)c1

$$$$

  CDD

  0  0  0  0  0  0            999 V2000
M  END
> <Molecule Name>
CVD-0005507

> <SMILES>
Brc1ccc2OCCC(NC(=O)Nn3cnc4ccccc34)c2c1

$$$$

  CDD

  0  0  0  0  0  0            999 V2000
M  END
> <Molecule Name>
CVD-0005506

> <SMILES>
Cc1ccncc1NC(=O)Cc1cc(Cl)c2OCCOc2c1

$$$$

  CDD

  0  0  0  0  0  0            999 V2000
M  END
> <Molecule Name>
CVD-0005505

> <SMILES>
Fc1ncccc1NC(=O)Cn1ccc2ccc(Cl)cc12

$$$$

  CDD

  0  0  0  0  0  0            999 V2000
M  END
> <Molecule Name>
CVD-0005504

> <SMILES>
Cc1ccc(cc1NC(=O)Cc1cnccc1Cl)N1CCOC1=O

$$$$

  CDD

  0  0  0  0  0  0            999 V2000
M  END
> <Molecule Name>
CVD-0005503

> <SMILES>
Cc1ccncc1NC(=O)C1(CC(=O)C1)c1cccc(Cl)c1

$$$$

  CDD

  0  0  0  0  0  0            999 V2000
M  END
> <Molecule Name>
CVD-0005502

> <SMILES>
FC(F)(C(=O)Nn1cnc2ccccc12)c1cccc(Cl)c1

$$$$

  CDD

  0  0  0  0  0  0            999 V2000
M  END
> <Molecule Name>
CVD-0005501

> <SMILES>
COc1ccncc1NC(=O)C(O)c1cccc(Br)c1

$$$$

  CDD

  0  0  0  0  0  0            999 V2000
M  END
> <Molecule Name>
CVD-0005500

> <SMILES>
Fc1ccnc(F)c1NC(=O)Cc1c[nH]c2cccc(Cl)c12

$$$$

  CDD

  0  0  0  0  0  0            999 V2000
M  END
> <Molecule Name>
CVD-0005499

> <SMILES>
CC(N1Cc2ccc(CNC(=O)c3cnccc3C)cc2C1)C(=O)NC(C)(C)C

$$$$

  CDD

  0  0  0  0  0  0            999 V2000
M  END
> <Molecule Name>
CVD-0005498

> <SMILES>
Cc1cnn(c1)-c1ccncc1NC(=O)Cn1cc(C)c2ccccc12

$$$$

  CDD

  0  0  0  0  0  0            999 V2000
M  END
> <Molecule Name>
CVD-0005497

> <SMILES>
Cn1cncc1C1NC(=O)N(C1=O)c1cc(F)cc(c1)N1CCOCC1

$$$$

  CDD

  0  0  0  0  0  0            999 V2000
M  END
> <Molecule Name>
CVD-0005496

> <SMILES>
COc1cccc(c1)C(O)C(=O)Nc1cnccc1C

$$$$

  CDD

  0  0  0  0  0  0            999 V2000
M  END
> <Molecule Name>
CVD-0005495

> <SMILES>
Cc1ccncc1NC(=O)Cn1ccc2ccc(F)cc12

$$$$

  CDD

  0  0  0  0  0  0            999 V2000
M  END
> <Molecule Name>
CVD-0005494

> <SMILES>
COc1ccc2CCCC(C(=O)Nc3c(F)ccnc3F)c2c1

$$$$

  CDD

  0  0  0  0  0  0            999 V2000
M  END
> <Molecule Name>
CVD-0005493

> <SMILES>
Cc1ccnn1CC(=O)NC(C#N)c1ccc(Cl)c(Cl)c1

$$$$

  CDD

  0  0  0  0  0  0            999 V2000
M  END
> <Molecule Name>
CVD-0005492

> <SMILES>
Fc1ccc2ccn(CC(=O)Nc3cncc(Cl)c3Cl)c2c1

$$$$

  CDD

  0  0  0  0  0  0            999 V2000
M  END
> <Molecule Name>
CVD-0005491

> <SMILES>
Cc1cn(CC(=O)Nc2cncc(Cl)c2Cl)c2ccccc12

$$$$

  CDD

  0  0  0  0  0  0            999 V2000
M  END
> <Molecule Name>
CVD-0005490

> <SMILES>
Cc1ccc(O)cc1NC(=O)C(C)(C)c1cccc(F)c1

$$$$

  CDD

  0  0  0  0  0  0            999 V2000
M  END
> <Molecule Name>
CVD-0005489

> <SMILES>
Clc1cc(Cl)cc(CC(=O)Nn2cnc3ccccc23)c1

$$$$

  CDD

  0  0  0  0  0  0            999 V2000
M  END
> <Molecule Name>
CVD-0005488

> <SMILES>
Cc1ccncc1CC(=O)NCc1ccc2CN(Cc2c1)C(=O)C(C)(C)F

$$$$

  CDD

  0  0  0  0  0  0            999 V2000
M  END
> <Molecule Name>
CVD-0005487

> <SMILES>
CCN(CC)c1ccc(CNC(=O)Nn2cnc3ccccc23)cc1

$$$$

  CDD

  0  0  0  0  0  0            999 V2000
M  END
> <Molecule Name>
CVD-0005486

> <SMILES>
CN(C(=O)c1ccc(Cl)c(NC(=O)Cn2cc(Br)ccc2=O)c1)c1ccccc1

$$$$

  CDD

  0  0  0  0  0  0            999 V2000
M  END
> <Molecule Name>
CVD-0005485

> <SMILES>
COc1ccc2c(OC3CC4N(C3)C(=O)c3ccccc3NC4=O)cc(nc2c1Cl)-n1cc(C)cn1

$$$$

  CDD

  0  0  0  0  0  0            999 V2000
M  END
> <Molecule Name>
CVD-0005484

> <SMILES>
FC(F)(F)S(=O)(=O)Nc1ccc2c(\C=C\c3ccc4ncccc4c3)cccc2c1

$$$$

  CDD

  0  0  0  0  0  0            999 V2000
M  END
> <Molecule Name>
CVD-0005483

> <SMILES>
COc1ccc2c(OC3CC4N(C3)C(=O)C3CC3\C=C/CCCCN(C)C4=O)cc(nc2c1)-c1ccccc1

$$$$

  CDD

  0  0  0  0  0  0            999 V2000
M  END
> <Molecule Name>
CVD-0005482

> <SMILES>
OC(=O)c1ccc(O)c(c1)C(Cc1cccc(Cl)c1)c1ccc(OC2CCOC2)c(Cl)c1

$$$$

  CDD

  0  0  0  0  0  0            999 V2000
M  END
> <Molecule Name>
CVD-0005481

> <SMILES>
Cc1cc(C)cc(c1)C(=O)NC(Cc1ccccc1)C(O)C(=O)N1CS(=O)(=O)c2ccccc12

$$$$

  CDD

  0  0  0  0  0  0            999 V2000
M  END
> <Molecule Name>
CVD-0005480

> <SMILES>
O=C(NC(Cc1ccccc1)C(=O)N1CCOCC1)C(c1ccccc1)c1ccc2ccccc2c1

$$$$

  CDD

  0  0  0  0  0  0            999 V2000
M  END
> <Molecule Name>
CVD-0005479

> <SMILES>
COc1ccc2c(OC3CC4N(C3)C(=O)CCCC3CC3(NC4=O)C(O)=O)cc(nc2c1C)-c1nc(C)no1

$$$$

  CDD

  0  0  0  0  0  0            999 V2000
M  END
> <Molecule Name>
CVD-0005478

> <SMILES>
CC(C)(C)C(O)C(Cc1ccccc1)NC(=O)C(Cc1ccccc1)NC(=O)c1ccc(Cl)cc1

$$$$

  CDD

  0  0  0  0  0  0            999 V2000
M  END
> <Molecule Name>
CVD-0005477

> <SMILES>
CCC(CC)NC(=O)C(Cc1ccccc1)NC(=O)c1cc(Cl)cc(Cl)c1

$$$$

  CDD

  0  0  0  0  0  0            999 V2000
M  END
> <Molecule Name>
CVD-0005476

> <SMILES>
CC(C)(C)NC(=O)C1CCCN1CC(O)C(Cc1ccccc1)NC(=O)c1ccc2ccccc2n1

$$$$

  CDD

  0  0  0  0  0  0            999 V2000
M  END
> <Molecule Name>
CVD-0005475

> <SMILES>
CC(C)(C)NC(=O)C1CCCCN1CC(O)C(Cc1ccccc1)NC(=O)c1ccc2ccccc2n1

$$$$

  CDD

  0  0  0  0  0  0            999 V2000
M  END
> <Molecule Name>
CVD-0005474

> <SMILES>
CC(C)(C)NC(=O)C1CCCN1C(=O)C(O)C(Cc1ccccc1)NC(=O)c1ccc2ccccc2n1

$$$$

  CDD

  0  0  0  0  0  0            999 V2000
M  END
> <Molecule Name>
CVD-0005473

> <SMILES>
CC(C)(C)OC(=O)NC(Cc1ccccc1)C(Cc1ccccc1)C(=O)NC1C(O)Cc2ccccc12

$$$$

  CDD

  0  0  0  0  0  0            999 V2000
M  END
> <Molecule Name>
CVD-0005472

> <SMILES>
CC(C)CN(CC(O)C(Cc1ccccc1)NC(=O)OC1COC2OCCC12)S(=O)(=O)c1ccc2CCOc2c1

$$$$

  CDD

  0  0  0  0  0  0            999 V2000
M  END
> <Molecule Name>
CVD-0005471

> <SMILES>
CC(C)CN(CC(O)C(Cc1ccccc1)NC(=O)OC1CCOCC1)S(=O)(=O)c1ccc2CCCCc2c1

$$$$

  CDD

  0  0  0  0  0  0            999 V2000
M  END
> <Molecule Name>
CVD-0005470

> <SMILES>
CC(C)CN(CC(O)C(Cc1ccccc1)NC(=O)OC1COC2OCCC12)S(=O)(=O)c1ccc2CCCOc2c1

$$$$

  CDD

  0  0  0  0  0  0            999 V2000
M  END
> <Molecule Name>
CVD-0005469

> <SMILES>
CC(C)CN(CC(O)C(Cc1ccccc1)NC(=O)OC1COC2OCCC12)S(=O)(=O)c1ccc2CCCCc2c1

$$$$

  CDD

  0  0  0  0  0  0            999 V2000
M  END
> <Molecule Name>
CVD-0005468

> <SMILES>
COc1ccc2c(OC3CC4N(C3)C(=O)C3(CCCCCCCCCC(=O)N(C)C3)NC4=O)cc(nc2c1)-n1cccc1

$$$$

  CDD

  0  0  0  0  0  0            999 V2000
M  END
> <Molecule Name>
CVD-0005467

> <SMILES>
CC(C)CN(CC(O)C(Cc1ccccc1)NC(=O)OC1COC2OCCC12)S(=O)(=O)c1ccncc1

$$$$

  CDD

  0  0  0  0  0  0            999 V2000
M  END
> <Molecule Name>
CVD-0005466

> <SMILES>
CC(C)(C)NC(=O)C1CC2CCCCC2CN1CC(O)C(Cc1ccccc1)NC(=O)c1cccc(O)c1

$$$$

  CDD

  0  0  0  0  0  0            999 V2000
M  END
> <Molecule Name>
CVD-0005465

> <SMILES>
Cc1ccc(cc1)S(=O)(=O)N1CCC(CN2CCC(F)(F)CC2C(=O)NC2C(O)Cc3ccccc23)CC1C(=O)NC(C)(C)C

$$$$

  CDD

  0  0  0  0  0  0            999 V2000
M  END
> <Molecule Name>
CVD-0005464

> <SMILES>
CC(C)(C)NC(=O)C1CCCN1C(=O)C(O)CC(Cc1ccccc1)C(=O)NC1OCc2ccccc12

$$$$

  CDD

  0  0  0  0  0  0            999 V2000
M  END
> <Molecule Name>
CVD-0005463

> <SMILES>
CC(C)(C)NC(=O)C1CC2CCCCC2CN1CC(OCC1CCCCC1)C(=O)NC1C(O)Cc2ccccc12

$$$$

  CDD

  0  0  0  0  0  0            999 V2000
M  END
> <Molecule Name>
CVD-0005462

> <SMILES>
CN(CC(O)C(Cc1ccccc1)NC(=O)OC1CCOC1)S(=O)(=O)c1ccc2CCCCc2c1

$$$$

  CDD

  0  0  0  0  0  0            999 V2000
M  END
> <Molecule Name>
CVD-0005461

> <SMILES>
CN1C(c2cnc(C)s2)C(C(=O)Nc2cc(Br)cs2)=C(N=C1C1CC2CCN2C1)C(=O)NS(=O)(=O)C1CC1

$$$$

  CDD

  0  0  0  0  0  0            999 V2000
M  END
> <Molecule Name>
CVD-0005460

> <SMILES>
Cc1ccc(NC(=O)c2cc(ncc2F)C#N)cc1-n1ccn2nc(cc12)-c1cccnc1

$$$$

  CDD

  0  0  0  0  0  0            999 V2000
M  END
> <Molecule Name>
CVD-0005459

> <SMILES>
CC1(C)Oc2ccc(cc2C(=O)N1CCc1ccccc1)S(=O)(=O)NC1Cc2cc(cc(F)c2C1)C(F)(F)F

$$$$

  CDD

  0  0  0  0  0  0            999 V2000
M  END
> <Molecule Name>
CVD-0005458

> <SMILES>
COc1ccc2c(OC3CC4N(C3)C(=O)CCCOCC3COC3(NC4=O)C(O)=O)cc(nc2c1)-c1cccs1

$$$$

  CDD

  0  0  0  0  0  0            999 V2000
M  END
> <Molecule Name>
CVD-0005457

> <SMILES>
CC(C)(C)NC(=O)C1CC2CCCCC2CN1CC(OCc1ccccn1)C(=O)NCc1ccc2OCOc2c1

$$$$

  CDD

  0  0  0  0  0  0            999 V2000
M  END
> <Molecule Name>
CVD-0005456

> <SMILES>
CC(C)(C)NC(=O)C1CC2CCCCCC2CN1CC(O)C(Cc1ccccc1)NC(=O)c1ccccc1

$$$$

  CDD

  0  0  0  0  0  0            999 V2000
M  END
> <Molecule Name>
CVD-0005455

> <SMILES>
Cc1cccc(C)c1C(=O)NC(Cc1ccccc1)C(O)C(=O)N1CC2CC(C1)n1c2cccc1=O

$$$$

  CDD

  0  0  0  0  0  0            999 V2000
M  END
> <Molecule Name>
CVD-0005454

> <SMILES>
COc1ccc2c(OC3CC4C(C3)C(=O)c3ccc(cc3NC4=O)C(F)(F)F)cc(nc2c1)-n1cccn1

$$$$

  CDD

  0  0  0  0  0  0            999 V2000
M  END
> <Molecule Name>
CVD-0005453

> <SMILES>
CC(C)(C)NC(=O)C1CC2CCCCC2CN1CC(OCC12CCCC1CS(=O)(=O)N2)c1cccc(c1)C(F)(F)F

$$$$

  CDD

  0  0  0  0  0  0            999 V2000
M  END
> <Molecule Name>
CVD-0005452

> <SMILES>
CC(C)N(C)C(=O)[C@H]1CCN(C[C@H]1CN(C(C)=O)c1cccnc1)C(=O)CCl

$$$$

  CDD

  0  0  0  0  0  0            999 V2000
M  END
> <Molecule Name>
CVD-0005451

> <SMILES>
CC(C)N(C)C(=O)[C@H]1CCN([C@@H](CN(C(C)=O)c2cccnc2)C1)C(=O)CCl

$$$$

  CDD

  0  0  0  0  0  0            999 V2000
M  END
> <Molecule Name>
CVD-0005450

> <SMILES>
CC(C)N(C)C(=O)[C@H]1CCN(C[C@@H]1CC(=O)Nc1cccnc1)C(=O)CCl

$$$$

  CDD

  0  0  0  0  0  0            999 V2000
M  END
> <Molecule Name>
CVD-0005449

> <SMILES>
CC(C)N(C)C(=O)[C@H]1CCN([C@H](CC(=O)Nc2cccnc2)C1)C(=O)CCl

$$$$

  CDD

  0  0  0  0  0  0            999 V2000
M  END
> <Molecule Name>
CVD-0005448

> <SMILES>
CC(C)N1CCN(C[C@H]1CN(C(C)=O)c1cccnc1)C(=O)CCl

$$$$

  CDD

  0  0  0  0  0  0            999 V2000
M  END
> <Molecule Name>
CVD-0005447

> <SMILES>
CC(C)N1CCN([C@@H](CN(C(C)=O)c2cccnc2)C1)C(=O)CCl

$$$$

  CDD

  0  0  0  0  0  0            999 V2000
M  END
> <Molecule Name>
CVD-0005446

> <SMILES>
CC(C)N1CCN(C[C@@H]1CC(=O)Nc1cccnc1)C(=O)CCl

$$$$

  CDD

  0  0  0  0  0  0            999 V2000
M  END
> <Molecule Name>
CVD-0005445

> <SMILES>
CC(C)N1CCN([C@H](CC(=O)Nc2cccnc2)C1)C(=O)CCl

$$$$

  CDD

  0  0  0  0  0  0            999 V2000
M  END
> <Molecule Name>
CVD-0005444

> <SMILES>
OCc1ccncc1NC(=O)Cc1cc(ccc1-c1ccccn1)C#N

$$$$

  CDD

  0  0  0  0  0  0            999 V2000
M  END
> <Molecule Name>
CVD-0005443

> <SMILES>
OCc1ccncc1NC(=O)Cc1cc(ccc1Cc1ccccn1)C#N

$$$$

  CDD

  0  0  0  0  0  0            999 V2000
M  END
> <Molecule Name>
CVD-0005442

> <SMILES>
OCc1ccncc1NC(=O)Cc1ccccc1-c1ccccn1

$$$$

  CDD

  0  0  0  0  0  0            999 V2000
M  END
> <Molecule Name>
CVD-0005441

> <SMILES>
OCc1ccncc1NC(=O)Cc1ccccc1Cc1ccccn1

$$$$

  CDD

  0  0  0  0  0  0            999 V2000
M  END
> <Molecule Name>
CVD-0005440

> <SMILES>
Cc1ccncc1NC(=O)Cc1cc(ccc1-c1ccccn1)C#N

$$$$

  CDD

  0  0  0  0  0  0            999 V2000
M  END
> <Molecule Name>
CVD-0005439

> <SMILES>
Cc1ccncc1NC(=O)Cc1cc(ccc1Cc1ccccn1)C#N

$$$$

  CDD

  0  0  0  0  0  0            999 V2000
M  END
> <Molecule Name>
CVD-0005438

> <SMILES>
Cc1ccncc1NC(=O)Cc1ccccc1-c1ccccn1

$$$$

  CDD

  0  0  0  0  0  0            999 V2000
M  END
> <Molecule Name>
CVD-0005437

> <SMILES>
Cc1ccncc1NC(=O)Cc1ccccc1Cc1ccccn1

$$$$

  CDD

  0  0  0  0  0  0            999 V2000
M  END
> <Molecule Name>
CVD-0005436

> <SMILES>
Cc1ccc(cc1CCc1ccsc1)N(C1CS(=O)(=O)C=C1)C(=O)CCl

$$$$

  CDD

  0  0  0  0  0  0            999 V2000
M  END
> <Molecule Name>
CVD-0005435

> <SMILES>
Cc1ccc(cc1Cc1ccsc1)N(C1CS(=O)(=O)C=C1)C(=O)CCl

$$$$

  CDD

  0  0  0  0  0  0            999 V2000
M  END
> <Molecule Name>
CVD-0005434

> <SMILES>
CCNc1ncc(cc1Cc1cc(ccc1CO)N(C1CS(=O)(=O)C=C1)C(=O)CCl)C#N

$$$$

  CDD

  0  0  0  0  0  0            999 V2000
M  END
> <Molecule Name>
CVD-0005433

> <SMILES>
CCNc1ncc(cc1CCc1cc(ccc1CO)N(C1CS(=O)(=O)C=C1)C(=O)CCl)C#N

$$$$

  CDD

  0  0  0  0  0  0            999 V2000
M  END
> <Molecule Name>
CVD-0005432

> <SMILES>
CCNc1ncc(cc1CCc1cc(ccc1C)N(C1CS(=O)(=O)C=C1)C(=O)CCl)C#N

$$$$

  CDD

  0  0  0  0  0  0            999 V2000
M  END
> <Molecule Name>
CVD-0005431

> <SMILES>
CCNc1ncc(cc1Cc1cc(ccc1C)N(C1CS(=O)(=O)C=C1)C(=O)CCl)C#N

$$$$

  CDD

  0  0  0  0  0  0            999 V2000
M  END
> <Molecule Name>
CVD-0005430

> <SMILES>
CS(=O)(=O)CCN(C(=O)CCl)c1ccc(CO)cc1

$$$$

  CDD

  0  0  0  0  0  0            999 V2000
M  END
> <Molecule Name>
CVD-0005429

> <SMILES>
OCc1ccc(cc1)N(C1CS(=O)(=O)C=C1)C(=O)CCl

$$$$

  CDD

  0  0  0  0  0  0            999 V2000
M  END
> <Molecule Name>
CVD-0005428

> <SMILES>
OCc1ccc(cc1CCc1ccsc1)N(C1CS(=O)(=O)C=C1)C(=O)CCl

$$$$

  CDD

  0  0  0  0  0  0            999 V2000
M  END
> <Molecule Name>
CVD-0005427

> <SMILES>
OCc1ccc(cc1Cc1ccsc1)N(C1CS(=O)(=O)C=C1)C(=O)CCl

$$$$

  CDD

  0  0  0  0  0  0            999 V2000
M  END
> <Molecule Name>
CVD-0005426

> <SMILES>
OCCc1ccc(cc1)N(C1CS(=O)(=O)C=C1)C(=O)CCl

$$$$

  CDD

  0  0  0  0  0  0            999 V2000
M  END
> <Molecule Name>
CVD-0005425

> <SMILES>
OCc1ccc2C(CN(Cc2c1)C(=O)CCl)c1nocc1C#N

$$$$

  CDD

  0  0  0  0  0  0            999 V2000
M  END
> <Molecule Name>
CVD-0005424

> <SMILES>
OCc1ccc2CN(CC(c3nocc3C#N)c2c1)C(=O)CCl

$$$$

  CDD

  0  0  0  0  0  0            999 V2000
M  END
> <Molecule Name>
CVD-0005423

> <SMILES>
OCc1ccc2CN(CC(c3ccccc3)c2c1)C(=O)CCl

$$$$

  CDD

  0  0  0  0  0  0            999 V2000
M  END
> <Molecule Name>
CVD-0005422

> <SMILES>
COC1(CC(=O)Nc2cnccc2C)CC1

$$$$

  CDD

  0  0  0  0  0  0            999 V2000
M  END
> <Molecule Name>
CVD-0005421

> <SMILES>
CCO[C@@H]1C[C@H]1C(=O)Nc1cnccc1C

$$$$

  CDD

  0  0  0  0  0  0            999 V2000
M  END
> <Molecule Name>
CVD-0005420

> <SMILES>
Fc1ccccc1S(=O)(=O)N1CCN(CC1)C(=O)c1cc(=O)[nH]c2ccc(Cl)cc12

$$$$

  CDD

  0  0  0  0  0  0            999 V2000
M  END
> <Molecule Name>
CVD-0005419

> <SMILES>
Cc1ccncc1NC(=O)CC(O)C1CC1

$$$$

  CDD

  0  0  0  0  0  0            999 V2000
M  END
> <Molecule Name>
CVD-0005418

> <SMILES>
Fc1ccc2[nH]c(=O)cc(C(=O)N3CCN(CC3)S(=O)(=O)c3cccc(Cl)c3)c2c1

$$$$

  CDD

  0  0  0  0  0  0            999 V2000
M  END
> <Molecule Name>
CVD-0005417

> <SMILES>
Fc1ccc2[nH]c(=O)cc(C(=O)N3CCN(CC3)S(=O)(=O)c3ccccc3Cl)c2c1

$$$$

  CDD

  0  0  0  0  0  0            999 V2000
M  END
> <Molecule Name>
CVD-0005416

> <SMILES>
Fc1ccc2[nH]c(=O)cc(C(=O)N3CCN(CC3)S(=O)(=O)c3ccc(Cl)cc3)c2c1

$$$$

  CDD

  0  0  0  0  0  0            999 V2000
M  END
> <Molecule Name>
CVD-0005415

> <SMILES>
Cc1ccc(cc1)S(=O)(=O)N1CCN(CC1)C(=O)c1cc(=O)[nH]c2ccc(Cl)cc12

$$$$

  CDD

  0  0  0  0  0  0            999 V2000
M  END
> <Molecule Name>
CVD-0005414

> <SMILES>
COc1ccc(cc1)S(=O)(=O)N1CCN(CC1)C(=O)c1cc(=O)[nH]c2cc(F)ccc12

$$$$

  CDD

  0  0  0  0  0  0            999 V2000
M  END
> <Molecule Name>
CVD-0005413

> <SMILES>
Cc1ccc(c(C)c1)S(=O)(=O)N1CCN(CC1)C(=O)c1cc(=O)[nH]c2ccc(F)cc12

$$$$

  CDD

  0  0  0  0  0  0            999 V2000
M  END
> <Molecule Name>
CVD-0005412

> <SMILES>
Cc1ccc(c(C)c1)S(=O)(=O)N1CCN(CC1)C(=O)c1cc(=O)[nH]c2cc(F)ccc12

$$$$

  CDD

  0  0  0  0  0  0            999 V2000
M  END
> <Molecule Name>
CVD-0005411

> <SMILES>
Fc1ccc2[nH]c(=O)cc(C(=O)N3CCN(CC3)S(=O)(=O)c3ccccc3C#N)c2c1

$$$$

  CDD

  0  0  0  0  0  0            999 V2000
M  END
> <Molecule Name>
CVD-0005410

> <SMILES>
Fc1ccc2c(cc(=O)[nH]c2c1)C(=O)N1CCN(CC1)S(=O)(=O)c1ccccc1C#N

$$$$

  CDD

  0  0  0  0  0  0            999 V2000
M  END
> <Molecule Name>
CVD-0005409

> <SMILES>
Fc1ccc2c(cc(=O)[nH]c2c1)C(=O)N1CCN(CC1)S(=O)(=O)c1ccc(cc1)C#N

$$$$

  CDD

  0  0  0  0  0  0            999 V2000
M  END
> <Molecule Name>
CVD-0005408

> <SMILES>
Cc1ccncc1NC(=O)CC1(CO)CC1

$$$$

  CDD

  0  0  0  0  0  0            999 V2000
M  END
> <Molecule Name>
CVD-0005407

> <SMILES>
Fc1ccc2[nH]c(=O)cc(C(=O)N3CCN(CC3)S(=O)(=O)c3ccc(cc3)C#N)c2c1

$$$$

  CDD

  0  0  0  0  0  0            999 V2000
M  END
> <Molecule Name>
CVD-0005406

> <SMILES>
Clc1ccc2[nH]c(=O)cc(C(=O)N3CCN(CC3)S(=O)(=O)c3ccccc3)c2c1

$$$$

  CDD

  0  0  0  0  0  0            999 V2000
M  END
> <Molecule Name>
CVD-0005405

> <SMILES>
Fc1ccc2c(cc(=O)[nH]c2c1)C(=O)N1CCN(CC1)S(=O)(=O)c1ccccc1

$$$$

  CDD

  0  0  0  0  0  0            999 V2000
M  END
> <Molecule Name>
CVD-0005404

> <SMILES>
Fc1ccc2[nH]c(=O)cc(C(=O)N3CCN(CC3)S(=O)(=O)c3ccccc3)c2c1

$$$$

  CDD

  0  0  0  0  0  0            999 V2000
M  END
> <Molecule Name>
CVD-0005403

> <SMILES>
CCCN(CC1COc2ccccc2O1)C(=O)c1cc(=O)[nH]c2ccc(Cl)cc12

$$$$

  CDD

  0  0  0  0  0  0            999 V2000
M  END
> <Molecule Name>
CVD-0005402

> <SMILES>
COc1ccccc1OC1CCCN(C1)C(=O)c1cc(=O)[nH]c2ccc(Cl)cc12

$$$$

  CDD

  0  0  0  0  0  0            999 V2000
M  END
> <Molecule Name>
CVD-0005401

> <SMILES>
CC1(C)Cc2cccc(OCCNC(=O)c3cc(=O)[nH]c4ccc(Cl)cc34)c2O1

$$$$

  CDD

  0  0  0  0  0  0            999 V2000
M  END
> <Molecule Name>
CVD-0005400

> <SMILES>
CCN(CC1COc2ccccc2O1)C(=O)c1cc(=O)[nH]c2ccc(cc12)[N+]([O-])=O

$$$$

  CDD

  0  0  0  0  0  0            999 V2000
M  END
> <Molecule Name>
CVD-0005399

> <SMILES>
CCN(CC1COc2ccccc2O1)C(=O)c1cc(=O)[nH]c2ccc(Cl)cc12

$$$$

  CDD

  0  0  0  0  0  0            999 V2000
M  END
> <Molecule Name>
CVD-0005398

> <SMILES>
CCCN(CC1COc2ccccc2O1)C(=O)c1cc(=O)[nH]c2cc(F)ccc12

$$$$

  CDD

  0  0  0  0  0  0            999 V2000
M  END
> <Molecule Name>
CVD-0005397

> <SMILES>
CC(CC1CC1)C(=O)Nc1cnccc1C

$$$$

  CDD

  0  0  0  0  0  0            999 V2000
M  END
> <Molecule Name>
CVD-0005396

> <SMILES>
CCOc1ccccc1OC1CCN(C1)C(=O)c1cc(=O)[nH]c2cc(F)ccc12

$$$$

  CDD

  0  0  0  0  0  0            999 V2000
M  END
> <Molecule Name>
CVD-0005395

> <SMILES>
CCOc1ccccc1OC1CCN(C1)C(=O)c1cc(=O)[nH]c2ccc(F)cc12

$$$$

  CDD

  0  0  0  0  0  0            999 V2000
M  END
> <Molecule Name>
CVD-0005394

> <SMILES>
CC1(C)Cc2cccc(OCCNC(=O)c3cc(=O)[nH]c4ccc(F)cc34)c2O1

$$$$

  CDD

  0  0  0  0  0  0            999 V2000
M  END
> <Molecule Name>
CVD-0005393

> <SMILES>
CC1(C)Cc2cccc(OCCNC(=O)c3cc(=O)[nH]c4cc(F)ccc34)c2O1

$$$$

  CDD

  0  0  0  0  0  0            999 V2000
M  END
> <Molecule Name>
CVD-0005392

> <SMILES>
CCOc1ccccc1OC1CCN(C1)C(=O)c1c(C)c(=O)[nH]c2ccccc12

$$$$

  CDD

  0  0  0  0  0  0            999 V2000
M  END
> <Molecule Name>
CVD-0005391

> <SMILES>
COc1ccccc1OC1CCCN(C1)C(=O)c1c(C)c(=O)[nH]c2ccccc12

$$$$

  CDD

  0  0  0  0  0  0            999 V2000
M  END
> <Molecule Name>
CVD-0005390

> <SMILES>
COc1ccccc1OCCN(C)C(=O)c1cc(=O)[nH]c2ccc(Cl)cc12

$$$$

  CDD

  0  0  0  0  0  0            999 V2000
M  END
> <Molecule Name>
CVD-0005389

> <SMILES>
COc1ccccc1OCCNC(=O)c1cc(=O)[nH]c2ccc(Cl)cc12

$$$$

  CDD

  0  0  0  0  0  0            999 V2000
M  END
> <Molecule Name>
CVD-0005388

> <SMILES>
COc1ccccc1OCC(C)NC(=O)c1cc(=O)[nH]c2ccc(F)cc12

$$$$

  CDD

  0  0  0  0  0  0            999 V2000
M  END
> <Molecule Name>
CVD-0005387

> <SMILES>
COc1ccccc1OCC(C)NC(=O)c1cc(=O)[nH]c2cc(F)ccc12

$$$$

  CDD

  0  0  0  0  0  0            999 V2000
M  END
> <Molecule Name>
CVD-0005386

> <SMILES>
Cc1ccncc1NC(=O)C12CC(C1)CO2

$$$$

  CDD

  0  0  0  0  0  0            999 V2000
M  END
> <Molecule Name>
CVD-0005385

> <SMILES>
COc1ccccc1OC(C)CNC(=O)c1cc(=O)[nH]c2ccc(F)cc12

$$$$

  CDD

  0  0  0  0  0  0            999 V2000
M  END
> <Molecule Name>
CVD-0005384

> <SMILES>
COc1ccccc1OC(C)CNC(=O)c1cc(=O)[nH]c2cc(F)ccc12

$$$$

  CDD

  0  0  0  0  0  0            999 V2000
M  END
> <Molecule Name>
CVD-0005383

> <SMILES>
COc1ccccc1OCCN(C)C(=O)c1cc(=O)[nH]c2cc(F)ccc12

$$$$

  CDD

  0  0  0  0  0  0            999 V2000
M  END
> <Molecule Name>
CVD-0005382

> <SMILES>
COc1cccc2CC(COc12)NC(=O)c1cc(=O)[nH]c2cc(F)ccc12

$$$$

  CDD

  0  0  0  0  0  0            999 V2000
M  END
> <Molecule Name>
CVD-0005381

> <SMILES>
COc1cccc2CC(COc12)NC(=O)c1cc(=O)[nH]c2ccc(F)cc12

$$$$

  CDD

  0  0  0  0  0  0            999 V2000
M  END
> <Molecule Name>
CVD-0005380

> <SMILES>
CN(CC1COc2ccccc2O1)C(=O)c1cc(=O)[nH]c2cc(F)ccc12

$$$$

  CDD

  0  0  0  0  0  0            999 V2000
M  END
> <Molecule Name>
CVD-0005379

> <SMILES>
CN(CC1COc2ccccc2O1)C(=O)c1cc(=O)[nH]c2ccc(F)cc12

$$$$

  CDD

  0  0  0  0  0  0            999 V2000
M  END
> <Molecule Name>
CVD-0005378

> <SMILES>
COc1ccccc1OCCNC(=O)c1cc(=O)[nH]c2cc(F)ccc12

$$$$

  CDD

  0  0  0  0  0  0            999 V2000
M  END
> <Molecule Name>
CVD-0005377

> <SMILES>
Fc1ccc2c(cc(=O)[nH]c2c1)C(=O)NCC1COc2ccccc2O1

$$$$

  CDD

  0  0  0  0  0  0            999 V2000
M  END
> <Molecule Name>
CVD-0005376

> <SMILES>
Fc1ccc2[nH]c(=O)cc(C(=O)NCC3COc4ccccc4O3)c2c1

$$$$

  CDD

  0  0  0  0  0  0            999 V2000
M  END
> <Molecule Name>
CVD-0005375

> <SMILES>
Cc1ccncc1NC(=O)[C@]12C[C@H]1COC2

$$$$

  CDD

  0  0  0  0  0  0            999 V2000
M  END
> <Molecule Name>
CVD-0005374

> <SMILES>
Cc1ccncc1NC(=O)C12CCC(CO1)C2

$$$$

  CDD

  0  0  0  0  0  0            999 V2000
M  END
> <Molecule Name>
CVD-0005373

> <SMILES>
Cc1ccncc1NC(=O)C1C2CCOCC12

$$$$

  CDD

  0  0  0  0  0  0            999 V2000
M  END
> <Molecule Name>
CVD-0005372

> <SMILES>
Cc1ccncc1NC(=O)C1(CCOC1)C#N

$$$$

  CDD

  0  0  0  0  0  0            999 V2000
M  END
> <Molecule Name>
CVD-0005371

> <SMILES>
Cc1ccncc1NC(=O)[C@H]1C[C@@](O)(C1)C#N

$$$$

  CDD

  0  0  0  0  0  0            999 V2000
M  END
> <Molecule Name>
CVD-0005370

> <SMILES>
Cc1ccncc1NC(=O)CC12CC1CCC2

$$$$

  CDD

  0  0  0  0  0  0            999 V2000
M  END
> <Molecule Name>
CVD-0005369

> <SMILES>
Cc1ccncc1NC(=O)CC1CC2(CC2)C1

$$$$

  CDD

  0  0  0  0  0  0            999 V2000
M  END
> <Molecule Name>
CVD-0005368

> <SMILES>
Cc1ccncc1NC(=O)CC1CC2CC2C1

$$$$

  CDD

  0  0  0  0  0  0            999 V2000
M  END
> <Molecule Name>
CVD-0005367

> <SMILES>
Cc1ccncc1NC(=O)C1CCC11CCC1

$$$$

  CDD

  0  0  0  0  0  0            999 V2000
M  END
> <Molecule Name>
CVD-0005366

> <SMILES>
Cc1ccncc1NC(=O)C1CCC2(CC2)C1

$$$$

  CDD

  0  0  0  0  0  0            999 V2000
M  END
> <Molecule Name>
CVD-0005365

> <SMILES>
Cc1ccnc(C)c1NC(=O)C1CC2CC2C1

$$$$

  CDD

  0  0  0  0  0  0            999 V2000
M  END
> <Molecule Name>
CVD-0005364

> <SMILES>
CO[C@@H](C)C(=O)Nc1cnccc1C

$$$$

  CDD

  0  0  0  0  0  0            999 V2000
M  END
> <Molecule Name>
CVD-0005363

> <SMILES>
Cc1ccncc1NC(=O)[C@@H]1[C@H]2CCCC[C@@H]12

$$$$

  CDD

  0  0  0  0  0  0            999 V2000
M  END
> <Molecule Name>
CVD-0005362

> <SMILES>
Cc1ccncc1NC(=O)C1CC(C1)C1CC1

$$$$

  CDD

  0  0  0  0  0  0            999 V2000
M  END
> <Molecule Name>
CVD-0005361

> <SMILES>
Cc1ccncc1NC(=O)CCc1ccn[nH]1

$$$$

  CDD

  0  0  0  0  0  0            999 V2000
M  END
> <Molecule Name>
CVD-0005360

> <SMILES>
C[C@H](OC(F)F)C(=O)Nc1cnccc1C

$$$$

  CDD

  0  0  0  0  0  0            999 V2000
M  END
> <Molecule Name>
CVD-0005359

> <SMILES>
Cc1ccncc1NC(=O)CC1(CCC1)C#N

$$$$

  CDD

  0  0  0  0  0  0            999 V2000
M  END
> <Molecule Name>
CVD-0005358

> <SMILES>
Cc1ccncc1NC(=O)C(CC1CC1)C#N

$$$$

  CDD

  0  0  0  0  0  0            999 V2000
M  END
> <Molecule Name>
CVD-0005357

> <SMILES>
C[C@H](NC(C)=O)C(=O)Nc1cnccc1C

$$$$

  CDD

  0  0  0  0  0  0            999 V2000
M  END
> <Molecule Name>
CVD-0005356

> <SMILES>
Cc1ccncc1NC(=O)[C@@H]1CNC(=O)O1

$$$$

  CDD

  0  0  0  0  0  0            999 V2000
M  END
> <Molecule Name>
CVD-0005355

> <SMILES>
CC(C)C(C)CC(=O)Nc1cnccc1C

$$$$

  CDD

  0  0  0  0  0  0            999 V2000
M  END
> <Molecule Name>
CVD-0005354

> <SMILES>
Cc1ccncc1NC(=O)CCOC1CC1

$$$$

  CDD

  0  0  0  0  0  0            999 V2000
M  END
> <Molecule Name>
CVD-0005353

> <SMILES>
COCCc1cc(CN2CCN(CC2)C(=O)CCl)c2[nH]cc(CCNC(C)=O)c2c1

$$$$

  CDD

  0  0  0  0  0  0            999 V2000
M  END
> <Molecule Name>
CVD-0005352

> <SMILES>
CNCCc1cc(CN2CCN(CC2)C(=O)CCl)c2[nH]cc(CCNC(C)=O)c2c1

$$$$

  CDD

  0  0  0  0  0  0            999 V2000
M  END
> <Molecule Name>
CVD-0005351

> <SMILES>
CNCc1cc(CN2CCN(CC2)C(=O)CCl)c2[nH]cc(CCNC(C)=O)c2c1

$$$$

  CDD

  0  0  0  0  0  0            999 V2000
M  END
> <Molecule Name>
CVD-0005350

> <SMILES>
CC(NC(=O)CCl)c1cc(F)cc2c(CCNC(C)=O)c[nH]c12

$$$$

  CDD

  0  0  0  0  0  0            999 V2000
M  END
> <Molecule Name>
CVD-0005349

> <SMILES>
CC(NC(=O)CCl)C1CCc2ccc(cc2N1C)S(N)(=O)=O

$$$$

  CDD

  0  0  0  0  0  0            999 V2000
M  END
> <Molecule Name>
CVD-0005348

> <SMILES>
CS(=O)(=O)NCC(NC(=O)CCl)c1cccc(Cl)c1

$$$$

  CDD

  0  0  0  0  0  0            999 V2000
M  END
> <Molecule Name>
CVD-0005347

> <SMILES>
CN(C)Cc1ccc(cc1)[C@H]1CN(CCO1)C(=O)CCl

$$$$

  CDD

  0  0  0  0  0  0            999 V2000
M  END
> <Molecule Name>
CVD-0005346

> <SMILES>
CN1C(CN2CCN(CC2)C(=O)CCl)CCc2ccc(cc12)S(N)(=O)=O

$$$$

  CDD

  0  0  0  0  0  0            999 V2000
M  END
> <Molecule Name>
CVD-0005345

> <SMILES>
NS(=O)(=O)Cc1c[nH]c2c(CN3CCN(CC3)C(=O)CCl)cc(F)cc12

$$$$

  CDD

  0  0  0  0  0  0            999 V2000
M  END
> <Molecule Name>
CVD-0005344

> <SMILES>
CN(C)Cc1cccc(CN2CCN(CC2)C(=O)CCl)c1

$$$$

  CDD

  0  0  0  0  0  0            999 V2000
M  END
> <Molecule Name>
CVD-0005343

> <SMILES>
Fc1cccc(F)c1S(=O)(=O)N1CCN(CC11CCOC1)C(=O)CCl

$$$$

  CDD

  0  0  0  0  0  0            999 V2000
M  END
> <Molecule Name>
CVD-0005342

> <SMILES>
Fc1cccc(F)c1S(=O)(=O)N1CCN(C(=O)CCl)c2cnccc12

$$$$

  CDD

  0  0  0  0  0  0            999 V2000
M  END
> <Molecule Name>
CVD-0005341

> <SMILES>
Fc1cccc(F)c1S(=O)(=O)N1CCN(C[C@H]1c1ccccc1)C(=O)CCl

$$$$

  CDD

  0  0  0  0  0  0            999 V2000
M  END
> <Molecule Name>
CVD-0005340

> <SMILES>
Cc1noc(C)c1NC(=O)Cc1cccc(Cl)c1Cl

$$$$

  CDD

  0  0  0  0  0  0            999 V2000
M  END
> <Molecule Name>
CVD-0005339

> <SMILES>
COc1c(NC(=O)Cc2cccc(Cl)c2Cl)c(C)nn1C

$$$$

  CDD

  0  0  0  0  0  0            999 V2000
M  END
> <Molecule Name>
CVD-0005338

> <SMILES>
Cc1cc2OC[C@@H](C(=O)Nc3cccnc3)c2cc1C

$$$$

  CDD

  0  0  0  0  0  0            999 V2000
M  END
> <Molecule Name>
CVD-0005337

> <SMILES>
Cc1cc(C)cc(CS(=O)(=O)N[C@]23C[C@H]2COC3)c1

$$$$

  CDD

  0  0  0  0  0  0            999 V2000
M  END
> <Molecule Name>
CVD-0005336

> <SMILES>
Cc1c(NC(=O)Cc2cccc(Cl)c2F)cnn1C

$$$$

  CDD

  0  0  0  0  0  0            999 V2000
M  END
> <Molecule Name>
CVD-0005335

> <SMILES>
Cc1nnc(NC(=O)Cc2cccc(Cl)c2F)n1C

$$$$

  CDD

  0  0  0  0  0  0            999 V2000
M  END
> <Molecule Name>
CVD-0005334

> <SMILES>
OCc1ccncc1NC(=O)[C@@H]1COc2ccc(Cl)cc12

$$$$

  CDD

  0  0  0  0  0  0            999 V2000
M  END
> <Molecule Name>
CVD-0005333

> <SMILES>
Cc1cc2OC[C@@H](C(=O)Nc3cncnc3-n3cccn3)c2cc1C

$$$$

  CDD

  0  0  0  0  0  0            999 V2000
M  END
> <Molecule Name>
CVD-0005332

> <SMILES>
CCc1ccncc1NC(=O)Cc1cccc(n1)C(F)(F)F

$$$$

  CDD

  0  0  0  0  0  0            999 V2000
M  END
> <Molecule Name>
CVD-0005331

> <SMILES>
Cc1cncn1CC(=O)Nc1cc(C)c(Cl)c(C)c1

$$$$

  CDD

  0  0  0  0  0  0            999 V2000
M  END
> <Molecule Name>
CVD-0005330

> <SMILES>
C[C@H](c1nc(C)no1)S(=O)(=O)Cc1cccc(c1)C(F)(F)F

$$$$

  CDD

  0  0  0  0  0  0            999 V2000
M  END
> <Molecule Name>
CVD-0005329

> <SMILES>
Clc1ccc2OCCC(C(=O)Nc3nncn3C3CC3)c2c1

$$$$

  CDD

  0  0  0  0  0  0            999 V2000
M  END
> <Molecule Name>
CVD-0005328

> <SMILES>
Cn1cnnc1NC(=O)Cc1cccc(Cl)c1F

$$$$

  CDD

  0  0  0  0  0  0            999 V2000
M  END
> <Molecule Name>
CVD-0005327

> <SMILES>
CC(C)n1nc(C)c(CC(=O)Nc2nncn2C2CC2)c1C

$$$$

  CDD

  0  0  0  0  0  0            999 V2000
M  END
> <Molecule Name>
CVD-0005326

> <SMILES>
Cc1cc(C)cc(CC(=O)Nc2nncn2C)c1

$$$$

  CDD

  0  0  0  0  0  0            999 V2000
M  END
> <Molecule Name>
CVD-0005325

> <SMILES>
Cn1cnnc1NC(=O)Cc1cccc(Cl)c1

$$$$

  CDD

  0  0  0  0  0  0            999 V2000
M  END
> <Molecule Name>
CVD-0005324

> <SMILES>
CN(C(=O)Cc1cnn(C)c1C)c1cc(C)ccc1C

$$$$

  CDD

  0  0  0  0  0  0            999 V2000
M  END
> <Molecule Name>
CVD-0005323

> <SMILES>
Cc1nnc(NC(=O)Cc2cccc(Cl)c2)n1C

$$$$

  CDD

  0  0  0  0  0  0            999 V2000
M  END
> <Molecule Name>
CVD-0005322

> <SMILES>
Cc1cncn1CC(=O)Nc1cccc(C)n1

$$$$

  CDD

  0  0  0  0  0  0            999 V2000
M  END
> <Molecule Name>
CVD-0005321

> <SMILES>
Cc1c(CC(=O)Nc2cc(C)cc(C)c2)cnn1C

$$$$

  CDD

  0  0  0  0  0  0            999 V2000
M  END
> <Molecule Name>
CVD-0005320

> <SMILES>
Cc1cncn1CC(=O)Nc1cc(C)cc(C)c1

$$$$

  CDD

  0  0  0  0  0  0            999 V2000
M  END
> <Molecule Name>
CVD-0005319

> <SMILES>
Cn1nnnc1NC(=O)Cc1csc(n1)C(C)(C)C

$$$$

  CDD

  0  0  0  0  0  0            999 V2000
M  END
> <Molecule Name>
CVD-0005318

> <SMILES>
Cc1nnc(NC(=O)Cc2cccc(Cl)c2F)s1

$$$$

  CDD

  0  0  0  0  0  0            999 V2000
M  END
> <Molecule Name>
CVD-0005317

> <SMILES>
Cc1noc(C)c1CS(=O)(=O)Cc1cccc(Cl)c1

$$$$

  CDD

  0  0  0  0  0  0            999 V2000
M  END
> <Molecule Name>
CVD-0005316

> <SMILES>
Cc1ccncc1NC(=O)[C@@H]1C[C@H]1CF

$$$$

  CDD

  0  0  0  0  0  0            999 V2000
M  END
> <Molecule Name>
CVD-0005315

> <SMILES>
CN(C(=O)[C@@H]1C[C@H]1CF)c1cnccc1C

$$$$

  CDD

  0  0  0  0  0  0            999 V2000
M  END
> <Molecule Name>
CVD-0005314

> <SMILES>
CC(C(=O)Nc1cnccc1C)=C1CC1

$$$$

  CDD

  0  0  0  0  0  0            999 V2000
M  END
> <Molecule Name>
CVD-0005313

> <SMILES>
CN(C(=O)C(C)=C1CC1)c1cnccc1C

$$$$

  CDD

  0  0  0  0  0  0            999 V2000
M  END
> <Molecule Name>
CVD-0005312

> <SMILES>
CO[C@H](C)C(=O)N(C)c1cnccc1C

$$$$

  CDD

  0  0  0  0  0  0            999 V2000
M  END
> <Molecule Name>
CVD-0005311

> <SMILES>
CO[C@H](C)C(=O)Nc1cnccc1C

$$$$

  CDD

  0  0  0  0  0  0            999 V2000
M  END
> <Molecule Name>
CVD-0005310

> <SMILES>
CN1CCN(CC1)C(=O)c1ccc2CN(CCc2c1)C(=O)CCl

$$$$

  CDD

  0  0  0  0  0  0            999 V2000
M  END
> <Molecule Name>
CVD-0005309

> <SMILES>
CN1CCN(CC1)C(=O)C1C[C@@H]2CC[C@H](C1)N2C(=O)CCl

$$$$

  CDD

  0  0  0  0  0  0            999 V2000
M  END
> <Molecule Name>
CVD-0005308

> <SMILES>
C[C@H](OC(C)(C)C)[C@H](NC(=O)OCc1ccccc1)C(=O)N[C@@H](CC1CCNCC1)C(=O)N[C@@H](C[C@@H]1CCNC1=O)C=O

$$$$

  CDD

  0  0  0  0  0  0            999 V2000
M  END
> <Molecule Name>
CVD-0005307

> <SMILES>
C=CC(=O)Nc1cccc(OC2CC(=O)N2)c1

$$$$

  CDD

  0  0  0  0  0  0            999 V2000
M  END
> <Molecule Name>
CVD-0005306

> <SMILES>
O=C(Cc1cncnc1)Nc1cccc(CC2CCC(=O)N2)c1

$$$$

  CDD

  0  0  0  0  0  0            999 V2000
M  END
> <Molecule Name>
CVD-0005305

> <SMILES>
O=C(Cc1cncnc1)Nc1cccc(CC2CC(=O)N2)c1

$$$$

  CDD

  0  0  0  0  0  0            999 V2000
M  END
> <Molecule Name>
CVD-0005304

> <SMILES>
O=C(Cc1ccccc1)Nc1cccc(OC2CC(=O)N2)c1

$$$$

  CDD

  0  0  0  0  0  0            999 V2000
M  END
> <Molecule Name>
CVD-0005303

> <SMILES>
O=C(NCc1cncnc1)c1cccc(OC2CC(=O)N2)c1

$$$$

  CDD

  0  0  0  0  0  0            999 V2000
M  END
> <Molecule Name>
CVD-0005302

> <SMILES>
O=C(Nc1cccc(OC2CC(=O)N2)c1)C(=O)c1cncnc1

$$$$

  CDD

  0  0  0  0  0  0            999 V2000
M  END
> <Molecule Name>
CVD-0005301

> <SMILES>
O=C(Cc1cncnc1)Nc1cccc(c1)C1CNC(=O)C1

$$$$

  CDD

  0  0  0  0  0  0            999 V2000
M  END
> <Molecule Name>
CVD-0005300

> <SMILES>
Cc1cc(NC(=O)Cc2cncnc2)cc(OC2CC(=O)N2)c1

$$$$

  CDD

  0  0  0  0  0  0            999 V2000
M  END
> <Molecule Name>
CVD-0005299

> <SMILES>
C[C@H](C(=O)Nc1cccc(OC2CC(=O)N2)c1)c1cncnc1

$$$$

  CDD

  0  0  0  0  0  0            999 V2000
M  END
> <Molecule Name>
CVD-0005298

> <SMILES>
C[C@@H](C(=O)Nc1cccc(OC2CC(=O)N2)c1)c1cncnc1

$$$$

  CDD

  0  0  0  0  0  0            999 V2000
M  END
> <Molecule Name>
CVD-0005297

> <SMILES>
Fc1cc(NC(=O)Cc2cncnc2)cc(OC2CC(=O)N2)c1

$$$$

  CDD

  0  0  0  0  0  0            999 V2000
M  END
> <Molecule Name>
CVD-0005296

> <SMILES>
O=C(Cc1cncnc1)Nc1cccc(CC2CNC(=O)N2)c1

$$$$

  CDD

  0  0  0  0  0  0            999 V2000
M  END
> <Molecule Name>
CVD-0005295

> <SMILES>
CC(=O)NCc1cccc(NC(=O)Cc2cncnc2)c1

$$$$

  CDD

  0  0  0  0  0  0            999 V2000
M  END
> <Molecule Name>
CVD-0005294

> <SMILES>
CCC(=O)Nc1cccc(OC2CC(=O)N2)c1

$$$$

  CDD

  0  0  0  0  0  0            999 V2000
M  END
> <Molecule Name>
CVD-0005293

> <SMILES>
C\C=C\C(=O)Nc1cccc(OC2CC(=O)N2)c1

$$$$

  CDD

  0  0  0  0  0  0            999 V2000
M  END
> <Molecule Name>
CVD-0005292

> <SMILES>
O=C(Cc1cccnc1)Nc1cccc(OC2CC(=O)N2)c1

$$$$

  CDD

  0  0  0  0  0  0            999 V2000
M  END
> <Molecule Name>
CVD-0005291

> <SMILES>
O=C(Cc1cccnc1)NCc1ccccc1

$$$$

  CDD

  0  0  0  0  0  0            999 V2000
M  END
> <Molecule Name>
CVD-0005290

> <SMILES>
O=C(Nc1ccccc1)c1ccc2[nH]ccc2c1

$$$$

  CDD

  0  0  0  0  0  0            999 V2000
M  END
> <Molecule Name>
CVD-0005289

> <SMILES>
Fc1ccc(CC(=O)Nc2cccc3cc[nH]c23)cc1

$$$$

  CDD

  0  0  0  0  0  0            999 V2000
M  END
> <Molecule Name>
CVD-0005288

> <SMILES>
Oc1ccc(CC(=O)Nc2cccc3cc[nH]c23)cc1

$$$$

  CDD

  0  0  0  0  0  0            999 V2000
M  END
> <Molecule Name>
CVD-0005287

> <SMILES>
Cc1nnc(o1)C1Cc2ccccc2CN1C(=O)CCl

$$$$

  CDD

  0  0  0  0  0  0            999 V2000
M  END
> <Molecule Name>
CVD-0005286

> <SMILES>
COc1ccc2CC(N(Cc2c1)C(=O)CCl)c1ccccc1

$$$$

  CDD

  0  0  0  0  0  0            999 V2000
M  END
> <Molecule Name>
CVD-0005285

> <SMILES>
ClCC(=O)N1CCN(Cc2nc(no2)-c2cccs2)CC1

$$$$

  CDD

  0  0  0  0  0  0            999 V2000
M  END
> <Molecule Name>
CVD-0005284

> <SMILES>
O=C(\C=C\c1cccs1)N1CCN(CC1)S(=O)(=O)Cc1ccon1

$$$$

  CDD

  0  0  0  0  0  0            999 V2000
M  END
> <Molecule Name>
CVD-0005283

> <SMILES>
NC(=O)C1CCCN1CC(=O)Nc1cccnc1

$$$$

  CDD

  0  0  0  0  0  0            999 V2000
M  END
> <Molecule Name>
CVD-0005282

> <SMILES>
Fc1cccc(F)c1S(=O)(=O)N1CCN(CC1)C(=O)\C=C\c1cccs1

$$$$

  CDD

  0  0  0  0  0  0            999 V2000
M  END
> <Molecule Name>
CVD-0005281

> <SMILES>
COS1=CC(=CC1)S(=O)(=O)N1CCN(CC1)C(=O)CCl

$$$$

  CDD

  0  0  0  0  0  0            999 V2000
M  END
> <Molecule Name>
CVD-0005280

> <SMILES>
OS1=CC(=CC1)S(=O)(=O)N1CCN(CC1)C(=O)CCl

$$$$

  CDD

  0  0  0  0  0  0            999 V2000
M  END
> <Molecule Name>
CVD-0005279

> <SMILES>
CS1=CC(=CC1)S(=O)(=O)N1CCN(CC1)C(=O)CCl

$$$$

  CDD

  0  0  0  0  0  0            999 V2000
M  END
> <Molecule Name>
CVD-0005278

> <SMILES>
ClCC(=O)N1CCC(CC1)S(=O)(=O)C1=CCS=C1

$$$$

  CDD

  0  0  0  0  0  0            999 V2000
M  END
> <Molecule Name>
CVD-0005277

> <SMILES>
ClCC(=O)N1CCN(CC1)S(=O)(=O)C1=CCN=C1

$$$$

  CDD

  0  0  0  0  0  0            999 V2000
M  END
> <Molecule Name>
CVD-0005276

> <SMILES>
ClCC(=O)N1CCN(CC1)S(=O)(=O)C1=CCS=N1

$$$$

  CDD

  0  0  0  0  0  0            999 V2000
M  END
> <Molecule Name>
CVD-0005275

> <SMILES>
ClCC(=O)N1CCN(CC1)S(=O)(=O)C1=NCS=C1

$$$$

  CDD

  0  0  0  0  0  0            999 V2000
M  END
> <Molecule Name>
CVD-0005274

> <SMILES>
ClCC(=O)N1CCN(CC1)S(=O)(=O)C1=CNS=C1

$$$$

  CDD

  0  0  0  0  0  0            999 V2000
M  END
> <Molecule Name>
CVD-0005273

> <SMILES>
ClCC(=O)N1CCN(CC1)S(=O)(=O)c1ccsc1

$$$$

  CDD

  0  0  0  0  0  0            999 V2000
M  END
> <Molecule Name>
CVD-0005272

> <SMILES>
ClCC(=O)N1CCN(Cc2cccc(CCc3cnc(nc3)C#N)c2)CC1

$$$$

  CDD

  0  0  0  0  0  0            999 V2000
M  END
> <Molecule Name>
CVD-0005271

> <SMILES>
ClCC(=O)N1CCN(Cc2cccc(CCc3ccnc(n3)C#N)c2)CC1

$$$$

  CDD

  0  0  0  0  0  0            999 V2000
M  END
> <Molecule Name>
CVD-0005270

> <SMILES>
ClCC(=O)N1CCN(Cc2cccc(c2)-c2cnc(nc2)C#N)CC1

$$$$

  CDD

  0  0  0  0  0  0            999 V2000
M  END
> <Molecule Name>
CVD-0005269

> <SMILES>
ClCC(=O)N1CCN(Cc2cccc(c2)-c2ccnc(n2)C#N)CC1

$$$$

  CDD

  0  0  0  0  0  0            999 V2000
M  END
> <Molecule Name>
CVD-0005268

> <SMILES>
ClCC(=O)N1CCN(Cc2cccc(c2)-c2cccnc2C#N)CC1

$$$$

  CDD

  0  0  0  0  0  0            999 V2000
M  END
> <Molecule Name>
CVD-0005267

> <SMILES>
Cc1cc(CN2CCN(CC2)C(=O)CCl)cc(Nc2nc(ncc2NC(=O)CCl)C#N)c1

$$$$

  CDD

  0  0  0  0  0  0            999 V2000
M  END
> <Molecule Name>
CVD-0005266

> <SMILES>
Cc1cc(CN2CCN(CC2)C(=O)CCl)cc(Nc2cc(NC(=O)CCl)nc(n2)C#N)c1

$$$$

  CDD

  0  0  0  0  0  0            999 V2000
M  END
> <Molecule Name>
CVD-0005265

> <SMILES>
Cc1cc(CN2CCN(CC2)C(=O)CCl)cc(Nc2ccc(NC(=O)CCl)cc2C#N)c1

$$$$

  CDD

  0  0  0  0  0  0            999 V2000
M  END
> <Molecule Name>
CVD-0005264

> <SMILES>
CCNc1cnc(nc1Nc1cc(C)cc(CN2CCN(CC2)C(=O)CCl)c1)C#N

$$$$

  CDD

  0  0  0  0  0  0            999 V2000
M  END
> <Molecule Name>
CVD-0005263

> <SMILES>
CCNc1cc(Nc2cc(C)cc(CN3CCN(CC3)C(=O)CCl)c2)nc(n1)C#N

$$$$

  CDD

  0  0  0  0  0  0            999 V2000
M  END
> <Molecule Name>
CVD-0005262

> <SMILES>
CCNc1cc(Nc2cc(C)cc(CN3CCN(CC3)C(=O)CCl)c2)cc(n1)C#N

$$$$

  CDD

  0  0  0  0  0  0            999 V2000
M  END
> <Molecule Name>
CVD-0005261

> <SMILES>
CCNc1ccc(Nc2cc(C)cc(CN3CCN(CC3)C(=O)CCl)c2)c(n1)C#N

$$$$

  CDD

  0  0  0  0  0  0            999 V2000
M  END
> <Molecule Name>
CVD-0005260

> <SMILES>
Cc1cc(CN2CCN(CC2)C(=O)CCl)cc(Nc2ccnc(n2)C#N)c1

$$$$

  CDD

  0  0  0  0  0  0            999 V2000
M  END
> <Molecule Name>
CVD-0005259

> <SMILES>
Cc1cc(CN2CCN(CC2)C(=O)CCl)cc(Nc2ccc(N)cc2C#N)c1

$$$$

  CDD

  0  0  0  0  0  0            999 V2000
M  END
> <Molecule Name>
CVD-0005258

> <SMILES>
CNc1ccc(Nc2cc(C)cc(CN3CCN(CC3)C(=O)CCl)c2)c(c1)C#N

$$$$

  CDD

  0  0  0  0  0  0            999 V2000
M  END
> <Molecule Name>
CVD-0005257

> <SMILES>
ClCC(=O)N1CCN(Cc2cccc(Sc3ccnc(n3)C#N)c2)CC1

$$$$

  CDD

  0  0  0  0  0  0            999 V2000
M  END
> <Molecule Name>
CVD-0005256

> <SMILES>
ClCC(=O)N1CCN(Cc2cccc(Sc3cnc(nc3)C#N)c2)CC1

$$$$

  CDD

  0  0  0  0  0  0            999 V2000
M  END
> <Molecule Name>
CVD-0005255

> <SMILES>
CN(c1cccc(CN2CCN(CC2)C(=O)CCl)c1)c1ccnc(n1)C#N

$$$$

  CDD

  0  0  0  0  0  0            999 V2000
M  END
> <Molecule Name>
CVD-0005254

> <SMILES>
CN(c1cccc(CN2CCN(CC2)C(=O)CCl)c1)c1cnc(nc1)C#N

$$$$

  CDD

  0  0  0  0  0  0            999 V2000
M  END
> <Molecule Name>
CVD-0005253

> <SMILES>
ClCC(=O)N1CCN(Cc2cccc(Oc3ccnc(n3)C#N)c2)CC1

$$$$

  CDD

  0  0  0  0  0  0            999 V2000
M  END
> <Molecule Name>
CVD-0005252

> <SMILES>
ClCC(=O)N1CCN(Cc2cccc(Oc3cnc(nc3)C#N)c2)CC1

$$$$

  CDD

  0  0  0  0  0  0            999 V2000
M  END
> <Molecule Name>
CVD-0005251

> <SMILES>
ClCC(=O)N1CCN(Cc2cccc(Nc3ccnc(n3)C#N)c2)CC1

$$$$

  CDD

  0  0  0  0  0  0            999 V2000
M  END
> <Molecule Name>
CVD-0005250

> <SMILES>
ClCC(=O)N1CCN(Cc2cccc(Nc3cnc(nc3)C#N)c2)CC1

$$$$

  CDD

  0  0  0  0  0  0            999 V2000
M  END
> <Molecule Name>
CVD-0005249

> <SMILES>
Cc1cc(CN2CCN(CC2)C(=O)CCl)cc(Nc2cccnc2C#N)c1

$$$$

  CDD

  0  0  0  0  0  0            999 V2000
M  END
> <Molecule Name>
CVD-0005248

> <SMILES>
ClCC(=O)Nc1cnc(nc1NC(=O)CCl)C#N

$$$$

  CDD

  0  0  0  0  0  0            999 V2000
M  END
> <Molecule Name>
CVD-0005247

> <SMILES>
CN(Cc1ccnc(n1)C#N)C(=O)CCl

$$$$

  CDD

  0  0  0  0  0  0            999 V2000
M  END
> <Molecule Name>
CVD-0005246

> <SMILES>
CN(C(=O)CCl)c1cnc(nc1)C#N

$$$$

  CDD

  0  0  0  0  0  0            999 V2000
M  END
> <Molecule Name>
CVD-0005245

> <SMILES>
CN(Cc1cnc(nc1)C#N)C(=O)CCl

$$$$

  CDD

  0  0  0  0  0  0            999 V2000
M  END
> <Molecule Name>
CVD-0005244

> <SMILES>
CN(C(=O)CCl)c1ccnc(n1)C#N

$$$$

  CDD

  0  0  0  0  0  0            999 V2000
M  END
> <Molecule Name>
CVD-0005243

> <SMILES>
ClCC(=O)NCc1ccnc(n1)C#N

$$$$

  CDD

  0  0  0  0  0  0            999 V2000
M  END
> <Molecule Name>
CVD-0005242

> <SMILES>
ClCC(=O)Nc1cnc(nc1)C#N

$$$$

  CDD

  0  0  0  0  0  0            999 V2000
M  END
> <Molecule Name>
CVD-0005241

> <SMILES>
ClCC(=O)NCc1cnc(nc1)C#N

$$$$

  CDD

  0  0  0  0  0  0            999 V2000
M  END
> <Molecule Name>
CVD-0005240

> <SMILES>
ClCC(=O)NCc1nc(nc(CNC(=O)CCl)c1CNC(=O)CCl)C#N

$$$$

  CDD

  0  0  0  0  0  0            999 V2000
M  END
> <Molecule Name>
CVD-0005239

> <SMILES>
ClCC(=O)Nc1nc(nc(NC(=O)CCl)c1NC(=O)CCl)C#N

$$$$

  CDD

  0  0  0  0  0  0            999 V2000
M  END
> <Molecule Name>
CVD-0005238

> <SMILES>
CN(Cc1cc(CN(C)C(=O)CCl)nc(n1)C#N)C(=O)CCl

$$$$

  CDD

  0  0  0  0  0  0            999 V2000
M  END
> <Molecule Name>
CVD-0005237

> <SMILES>
CN(Cc1cnc(nc1CN(C)C(=O)CCl)C#N)C(=O)CCl

$$$$

  CDD

  0  0  0  0  0  0            999 V2000
M  END
> <Molecule Name>
CVD-0005236

> <SMILES>
CN(C(=O)CCl)c1cc(nc(n1)C#N)N(C)C(=O)CCl

$$$$

  CDD

  0  0  0  0  0  0            999 V2000
M  END
> <Molecule Name>
CVD-0005235

> <SMILES>
CN(C(=O)CCl)c1cnc(nc1N(C)C(=O)CCl)C#N

$$$$

  CDD

  0  0  0  0  0  0            999 V2000
M  END
> <Molecule Name>
CVD-0005234

> <SMILES>
ClCC(=O)NCc1cc(CNC(=O)CCl)nc(n1)C#N

$$$$

  CDD

  0  0  0  0  0  0            999 V2000
M  END
> <Molecule Name>
CVD-0005233

> <SMILES>
ClCC(=O)NCc1cnc(nc1CNC(=O)CCl)C#N

$$$$

  CDD

  0  0  0  0  0  0            999 V2000
M  END
> <Molecule Name>
CVD-0005232

> <SMILES>
ClCC(=O)Nc1cc(NC(=O)CCl)nc(n1)C#N

$$$$

  CDD

  0  0  0  0  0  0            999 V2000
M  END
> <Molecule Name>
CVD-0005231

> <SMILES>
ClCC(=O)Nc1ccnc(n1)C#N

$$$$

  CDD

  0  0  0  0  0  0            999 V2000
M  END
> <Molecule Name>
CVD-0005230

> <SMILES>
ClCC(=O)Nc1ccc(cc1)C(=O)Oc1cccc(c1)N1CCCC1=O

$$$$

  CDD

  0  0  0  0  0  0            999 V2000
M  END
> <Molecule Name>
CVD-0005229

> <SMILES>
ClCC(=O)Nc1ccc(cc1)C(=O)Nc1cccc(c1)N1CCCC1=O

$$$$

  CDD

  0  0  0  0  0  0            999 V2000
M  END
> <Molecule Name>
CVD-0005228

> <SMILES>
ClCC(=O)Nc1ccccc1C(=O)Nc1cccc(c1)N1CCCC1=O

$$$$

  CDD

  0  0  0  0  0  0            999 V2000
M  END
> <Molecule Name>
CVD-0005227

> <SMILES>
ClCC(=O)Nc1cccc(c1)C(=O)Nc1cccc(c1)N1CCCC1=O

$$$$

  CDD

  0  0  0  0  0  0            999 V2000
M  END
> <Molecule Name>
CVD-0005226

> <SMILES>
CN(c1cccc(c1)C(=O)Nc1cccc(c1)N1CCCC1=O)S(C)(=O)=O

$$$$

  CDD

  0  0  0  0  0  0            999 V2000
M  END
> <Molecule Name>
CVD-0005225

> <SMILES>
O=c1cc(oc2cc(ccc12)N1CCCCC1)C1CCCCC1

$$$$

  CDD

  0  0  0  0  0  0            999 V2000
M  END
> <Molecule Name>
CVD-0005224

> <SMILES>
COc1ccc2c(c1)oc(C(C)C)c(C(=O)C(C)C)c2=O

$$$$

  CDD

  0  0  0  0  0  0            999 V2000
M  END
> <Molecule Name>
CVD-0005223

> <SMILES>
COc1ccc2OC(=CCc2c1)c1ccc(cc1)C(F)(F)F

$$$$

  CDD

  0  0  0  0  0  0            999 V2000
M  END
> <Molecule Name>
CVD-0005222

> <SMILES>
CN1CCN(CC1)c1ccc2c(c1)oc(cc2=O)-c1ccc(cc1)C(F)(F)F

$$$$

  CDD

  0  0  0  0  0  0            999 V2000
M  END
> <Molecule Name>
CVD-0005221

> <SMILES>
O=c1cc(oc2cc(ccc12)N1CCOC1)C1CCCCC1

$$$$

  CDD

  0  0  0  0  0  0            999 V2000
M  END
> <Molecule Name>
CVD-0005220

> <SMILES>
COc1ccc2oc(cc(=O)c2c1)C1CCCCC1

$$$$

  CDD

  0  0  0  0  0  0            999 V2000
M  END
> <Molecule Name>
CVD-0005219

> <SMILES>
Fc1ccc2c(c1)oc(cc2=O)C1CCCCC1

$$$$

  CDD

  0  0  0  0  0  0            999 V2000
M  END
> <Molecule Name>
CVD-0005218

> <SMILES>
Oc1ccc2oc(CC3CCCCC3)cc(=O)c2c1

$$$$

  CDD

  0  0  0  0  0  0            999 V2000
M  END
> <Molecule Name>
CVD-0005217

> <SMILES>
COc1ccc2oc(cc(=O)c2c1)-c1ccccc1

$$$$

  CDD

  0  0  0  0  0  0            999 V2000
M  END
> <Molecule Name>
CVD-0005216

> <SMILES>
Brc1ccc2oc(CC3CC=CC3)cc(=O)c2c1

$$$$

  CDD

  0  0  0  0  0  0            999 V2000
M  END
> <Molecule Name>
CVD-0005215

> <SMILES>
FC(F)(F)c1ccc(cc1)-c1cc(=O)c2ccc(C=C)cc2o1

$$$$

  CDD

  0  0  0  0  0  0            999 V2000
M  END
> <Molecule Name>
CVD-0005214

> <SMILES>
O=c1cc(oc2cc(ccc12)N1CCCCC1)-c1ccco1

$$$$

  CDD

  0  0  0  0  0  0            999 V2000
M  END
> <Molecule Name>
CVD-0005213

> <SMILES>
Brc1ccc2oc(cc(=O)c2c1)C1CC1

$$$$

  CDD

  0  0  0  0  0  0            999 V2000
M  END
> <Molecule Name>
CVD-0005212

> <SMILES>
COc1ccc2oc(cc(=O)c2c1)C1CC1

$$$$

  CDD

  0  0  0  0  0  0            999 V2000
M  END
> <Molecule Name>
CVD-0005211

> <SMILES>
CCC(CC)c1cc(=O)c2ccc(OC)cc2o1

$$$$

  CDD

  0  0  0  0  0  0            999 V2000
M  END
> <Molecule Name>
CVD-0005210

> <SMILES>
FC(F)(F)c1ccc(cc1)-c1cc(=O)c2cc(Br)ccc2o1

$$$$

  CDD

  0  0  0  0  0  0            999 V2000
M  END
> <Molecule Name>
CVD-0005209

> <SMILES>
COc1ccc2c(c1)oc(cc2=O)C1CCCCC1

$$$$

  CDD

  0  0  0  0  0  0            999 V2000
M  END
> <Molecule Name>
CVD-0005208

> <SMILES>
Oc1ccc2oc(CCCCCBr)cc(=O)c2c1

$$$$

  CDD

  0  0  0  0  0  0            999 V2000
M  END
> <Molecule Name>
CVD-0005207

> <SMILES>
COc1ccc2c(c1)oc(cc2=O)-c1ccc(cc1)C(F)(F)F

$$$$

  CDD

  0  0  0  0  0  0            999 V2000
M  END
> <Molecule Name>
CVD-0005206

> <SMILES>
Fc1ccc(cc1)-c1cc(=O)c2ccc(F)cc2o1

$$$$

  CDD

  0  0  0  0  0  0            999 V2000
M  END
> <Molecule Name>
CVD-0005205

> <SMILES>
O=c1cc(oc2cc(ccc12)N1CCOCC1)C1CCCCC1

$$$$

  CDD

  0  0  0  0  0  0            999 V2000
M  END
> <Molecule Name>
CVD-0005204

> <SMILES>
Fc1ccc2c(c1)oc(cc2=O)-c1cc(cc(c1)C(F)(F)F)C(F)(F)F

$$$$

  CDD

  0  0  0  0  0  0            999 V2000
M  END
> <Molecule Name>
CVD-0005203

> <SMILES>
COc1ccc2c(c1)oc(cc2=O)-c1ccc(F)cc1

$$$$

  CDD

  0  0  0  0  0  0            999 V2000
M  END
> <Molecule Name>
CVD-0005202

> <SMILES>
Fc1ccc2c(c1)oc(cc2=O)-c1ccc(cc1)C(F)(F)F

$$$$

  CDD

  0  0  0  0  0  0            999 V2000
M  END
> <Molecule Name>
CVD-0005201

> <SMILES>
Fc1ccc2c(c1)oc(cc2=O)-c1cccc(Cl)c1

$$$$

  CDD

  0  0  0  0  0  0            999 V2000
M  END
> <Molecule Name>
CVD-0005200

> <SMILES>
Brc1ccc2oc(cc(=O)c2c1)C1CCCCC1

$$$$

  CDD

  0  0  0  0  0  0            999 V2000
M  END
> <Molecule Name>
CVD-0005199

> <SMILES>
Fc1ccc2CC(=CC(=O)c2c1)c1ccco1

$$$$

  CDD

  0  0  0  0  0  0            999 V2000
M  END
> <Molecule Name>
CVD-0005198

> <SMILES>
Cc1ccc2oc(cc(=O)c2c1)-c1ccc(Cl)cc1

$$$$

  CDD

  0  0  0  0  0  0            999 V2000
M  END
> <Molecule Name>
CVD-0005197

> <SMILES>
Brc1ccc2oc(cc(=O)c2c1)-c1ccccc1

$$$$

  CDD

  0  0  0  0  0  0            999 V2000
M  END
> <Molecule Name>
CVD-0005196

> <SMILES>
COc1ccc2c(c1)oc(CC1CCCCC1)cc2=O

$$$$

  CDD

  0  0  0  0  0  0            999 V2000
M  END
> <Molecule Name>
CVD-0005195

> <SMILES>
Fc1ccc2c(c1)oc(cc2=O)-c1ccccc1

$$$$

  CDD

  0  0  0  0  0  0            999 V2000
M  END
> <Molecule Name>
CVD-0005194

> <SMILES>
Oc1ccc2oc(cc(=O)c2c1)C1CCCCC1

$$$$

  CDD

  0  0  0  0  0  0            999 V2000
M  END
> <Molecule Name>
CVD-0005193

> <SMILES>
COc1ccc2c(c1)oc(cc2=O)-c1ccccc1

$$$$

  CDD

  0  0  0  0  0  0            999 V2000
M  END
> <Molecule Name>
CVD-0005192

> <SMILES>
Fc1ccc2c(c1)oc(cc2=O)-c1ccc(Cl)cc1

$$$$

  CDD

  0  0  0  0  0  0            999 V2000
M  END
> <Molecule Name>
CVD-0005191

> <SMILES>
O=c1cc(oc2cc(ccc12)N1CCCCC1)-c1ccccc1

$$$$

  CDD

  0  0  0  0  0  0            999 V2000
M  END
> <Molecule Name>
CVD-0005190

> <SMILES>
Fc1ccc2c(c1)oc(cc2=O)C(F)(F)F

$$$$

  CDD

  0  0  0  0  0  0            999 V2000
M  END
> <Molecule Name>
CVD-0005189

> <SMILES>
COc1ccc(OC(=O)c2ccccc2)c(c1)C(C)=O

$$$$

  CDD

  0  0  0  0  0  0            999 V2000
M  END
> <Molecule Name>
CVD-0005188

> <SMILES>
COc1ccc2oc(cc(=O)c2c1)-c1ccc(Cl)cc1

$$$$

  CDD

  0  0  0  0  0  0            999 V2000
M  END
> <Molecule Name>
CVD-0005187

> <SMILES>
Clc1ccc(cc1)-c1cc(=O)c2ccc(cc2o1)N1CCOCC1

$$$$

  CDD

  0  0  0  0  0  0            999 V2000
M  END
> <Molecule Name>
CVD-0005186

> <SMILES>
COc1ccc2oc(cc(=O)c2c1)-c1ccc(cc1)C(F)(F)F

$$$$

  CDD

  0  0  0  0  0  0            999 V2000
M  END
> <Molecule Name>
CVD-0005185

> <SMILES>
O=c1cc(oc2ccccc12)C1CCCCC1

$$$$

  CDD

  0  0  0  0  0  0            999 V2000
M  END
> <Molecule Name>
CVD-0005184

> <SMILES>
O=c1cc(oc2ccc(cc12)-c1ccccc1)C1CCCCC1

$$$$

  CDD

  0  0  0  0  0  0            999 V2000
M  END
> <Molecule Name>
CVD-0005183

> <SMILES>
CN1CCN(CC1)c1ccc2oc(cc(=O)c2c1)C1CCCCC1

$$$$

  CDD

  0  0  0  0  0  0            999 V2000
M  END
> <Molecule Name>
CVD-0005182

> <SMILES>
O=c1cc(oc2ccc(cc12)N1CCOCC1)C1CCCCC1

$$$$

  CDD

  0  0  0  0  0  0            999 V2000
M  END
> <Molecule Name>
CVD-0005181

> <SMILES>
COc1ccc2oc(cc(=O)c2c1)C1CCCC1

$$$$

  CDD

  0  0  0  0  0  0            999 V2000
M  END
> <Molecule Name>
CVD-0005180

> <SMILES>
Brc1ccc2oc(cc(=O)c2c1)C1CCCC1

$$$$

  CDD

  0  0  0  0  0  0            999 V2000
M  END
> <Molecule Name>
CVD-0005179

> <SMILES>
COc1ccc(cc1OC)C1CC(=NN1C(=O)CCl)c1ccco1

$$$$

  CDD

  0  0  0  0  0  0            999 V2000
M  END
> <Molecule Name>
CVD-0005178

> <SMILES>
COc1ccc(cc1OC)-c1nc(cn1C(=O)CCl)-c1cccs1

$$$$

  CDD

  0  0  0  0  0  0            999 V2000
M  END
> <Molecule Name>
CVD-0005177

> <SMILES>
COc1ccc(cc1OC)C1CC(=NN1C(=O)C=C)c1cccs1

$$$$

  CDD

  0  0  0  0  0  0            999 V2000
M  END
> <Molecule Name>
CVD-0005176

> <SMILES>
COc1ccc(cc1OC)C1CC(=NN1C(=O)C(=C/C1CC1)\C#N)c1cccs1

$$$$

  CDD

  0  0  0  0  0  0            999 V2000
M  END
> <Molecule Name>
CVD-0005175

> <SMILES>
COc1ccc(cc1OC)C1CC(=NN1C(=O)C#C)c1cccs1

$$$$

  CDD

  0  0  0  0  0  0            999 V2000
M  END
> <Molecule Name>
CVD-0005174

> <SMILES>
COc1ccc(cc1OC)C1CC(=NN1C(=O)C(=C)C#N)c1cccs1

$$$$

  CDD

  0  0  0  0  0  0            999 V2000
M  END
> <Molecule Name>
CVD-0005173

> <SMILES>
COc1ccc(cc1OC)C1CC(=NN1C(=O)CCl)c1ccsc1

$$$$

  CDD

  0  0  0  0  0  0            999 V2000
M  END
> <Molecule Name>
CVD-0005172

> <SMILES>
COc1ccc(cc1OC)C1CC(=NN1S(F)(=O)=O)c1cccs1

$$$$

  CDD

  0  0  0  0  0  0            999 V2000
M  END
> <Molecule Name>
CVD-0005171

> <SMILES>
COc1ccc(cc1OC)C1CN=C(N1C(=O)CCl)c1cccs1

$$$$

  CDD

  0  0  0  0  0  0            999 V2000
M  END
> <Molecule Name>
CVD-0005170

> <SMILES>
COc1ccc(cc1OC)C1CC(=NN1C(=O)CCl)c1cncn1C

$$$$

  CDD

  0  0  0  0  0  0            999 V2000
M  END
> <Molecule Name>
CVD-0005169

> <SMILES>
COc1ccc(cc1OC)C1CC(=NN1C(=O)CCl)c1cnc[nH]1

$$$$

  CDD

  0  0  0  0  0  0            999 V2000
M  END
> <Molecule Name>
CVD-0005168

> <SMILES>
COc1ccc(cc1OC)C1CC(=NN1C(=O)CCl)c1cnco1

$$$$

  CDD

  0  0  0  0  0  0            999 V2000
M  END
> <Molecule Name>
CVD-0005167

> <SMILES>
COc1ccc(cc1OC)C1CC(=NN1C(=O)CCl)c1cncs1

$$$$

  CDD

  0  0  0  0  0  0            999 V2000
M  END
> <Molecule Name>
CVD-0005166

> <SMILES>
COc1ccc(cc1OC)C1CC(=NN1S(=O)(=O)C=C)c1cccs1

$$$$

  CDD

  0  0  0  0  0  0            999 V2000
M  END
> <Molecule Name>
CVD-0005165

> <SMILES>
Nc1ncc(CC(=O)Nc2cc(F)ccc2F)s1

$$$$

  CDD

  0  0  0  0  0  0            999 V2000
M  END
> <Molecule Name>
CVD-0005164

> <SMILES>
Clc1cccc(NC(=O)Nc2nccc3[nH]ncc23)c1

$$$$

  CDD

  0  0  0  0  0  0            999 V2000
M  END
> <Molecule Name>
CVD-0005163

> <SMILES>
Clc1cccc(NC(=O)Nc2ncnc3[nH]ncc23)c1

$$$$

  CDD

  0  0  0  0  0  0            999 V2000
M  END
> <Molecule Name>
CVD-0005162

> <SMILES>
C[C@H](C(=O)Nc1ccn[nH]1)c1cccc(C)c1

$$$$

  CDD

  0  0  0  0  0  0            999 V2000
M  END
> <Molecule Name>
CVD-0005161

> <SMILES>
O=C(Cc1cccnc1)N1CCC[C@H]1c1noc(n1)C1CC1

$$$$

  CDD

  0  0  0  0  0  0            999 V2000
M  END
> <Molecule Name>
CVD-0005160

> <SMILES>
Clc1cc(Cl)cc(CC(=O)Nc2nncs2)c1

$$$$

  CDD

  0  0  0  0  0  0            999 V2000
M  END
> <Molecule Name>
CVD-0005159

> <SMILES>
O[C@H](Cc1cccc(Cl)c1)Cn1cncn1

$$$$

  CDD

  0  0  0  0  0  0            999 V2000
M  END
> <Molecule Name>
CVD-0005158

> <SMILES>
Cc1ccncc1N1CCN(C1=O)c1cccc(Cl)c1

$$$$

  CDD

  0  0  0  0  0  0            999 V2000
M  END
> <Molecule Name>
CVD-0005157

> <SMILES>
Cc1ccncc1C1CCN(C1=O)c1cccc(Cl)c1

$$$$

  CDD

  0  0  0  0  0  0            999 V2000
M  END
> <Molecule Name>
CVD-0005156

> <SMILES>
Cc1ccncc1N1CCC(C1=O)c1cccc(Cl)c1

$$$$

  CDD

  0  0  0  0  0  0            999 V2000
M  END
> <Molecule Name>
CVD-0005155

> <SMILES>
Cc1ccncc1NC(=O)Cc1cccc(c1)-c1cn[nH]c1

$$$$

  CDD

  0  0  0  0  0  0            999 V2000
M  END
> <Molecule Name>
CVD-0005154

> <SMILES>
Cc1ccncc1NC(=O)Cc1cccc(c1)S(N)(=O)=O

$$$$

  CDD

  0  0  0  0  0  0            999 V2000
M  END
> <Molecule Name>
CVD-0005153

> <SMILES>
Cc1ccncc1NC(=O)Cc1cccc(CO)c1

$$$$

  CDD

  0  0  0  0  0  0            999 V2000
M  END
> <Molecule Name>
CVD-0005152

> <SMILES>
COc1cccc(CC(=O)Nc2cnccc2C)c1

$$$$

  CDD

  0  0  0  0  0  0            999 V2000
M  END
> <Molecule Name>
CVD-0005151

> <SMILES>
Cc1cc(CC(=O)Nc2cnccc2C)[nH]n1

$$$$

  CDD

  0  0  0  0  0  0            999 V2000
M  END
> <Molecule Name>
CVD-0005150

> <SMILES>
Cc1ccncc1C1CCN(c2cccc(Cl)c2)S1(=O)=O

$$$$

  CDD

  0  0  0  0  0  0            999 V2000
M  END
> <Molecule Name>
CVD-0005149

> <SMILES>
Cc1nnn(C)c1NC(=O)Cc1cccc(Cl)c1

$$$$

  CDD

  0  0  0  0  0  0            999 V2000
M  END
> <Molecule Name>
CVD-0005148

> <SMILES>
Cc1ccncc1N1CCC(c2cccc(Cl)c2)S1(=O)=O

$$$$

  CDD

  0  0  0  0  0  0            999 V2000
M  END
> <Molecule Name>
CVD-0005147

> <SMILES>
Cc1cnn(C)c1NC(=O)Cc1cccc(Cl)c1

$$$$

  CDD

  0  0  0  0  0  0            999 V2000
M  END
> <Molecule Name>
CVD-0005146

> <SMILES>
Cc1ccnc(C)c1NC(=O)Cc1cccc(Cl)c1

$$$$

  CDD

  0  0  0  0  0  0            999 V2000
M  END
> <Molecule Name>
CVD-0005145

> <SMILES>
Cc1ccncc1CC(=O)Nc1cccc(Cl)c1

$$$$

  CDD

  0  0  0  0  0  0            999 V2000
M  END
> <Molecule Name>
CVD-0005144

> <SMILES>
Cc1noc(C)c1C(=O)N1CC[C@H]2COC(=O)N2c2cc(C)ccc2C1

$$$$

  CDD

  0  0  0  0  0  0            999 V2000
M  END
> <Molecule Name>
CVD-0005143

> <SMILES>
CN1C(=O)[C@@]23CCCCN2C[C@@]11C[C@@]2(C(=O)Nc4c2ccc2OC(C)(C)C=COc42)C(C)(C)[C@H]1C3

$$$$

  CDD

  0  0  0  0  0  0            999 V2000
M  END
> <Molecule Name>
CVD-0005142

> <SMILES>
Fc1ccc(cc1)-c1cc(C[C@H]2CNCC[C@H]2CC(=O)N2CCN(CC2)c2ccccc2)no1

$$$$

  CDD

  0  0  0  0  0  0            999 V2000
M  END
> <Molecule Name>
CVD-0005141

> <SMILES>
Clc1ccc(cc1)-c1ccc2NC(=O)[C@H]3CN(CCN3C(=O)c2c1)C(=O)c1ccccc1

$$$$

  CDD

  0  0  0  0  0  0            999 V2000
M  END
> <Molecule Name>
CVD-0005140

> <SMILES>
CN(C)c1ccc(\C=C(/NC(=O)c2ccccc2Br)C(=O)N2C[C@@H]3C[C@@H](C2)c2cccc(=O)n2C3)cc1

$$$$

  CDD

  0  0  0  0  0  0            999 V2000
M  END
> <Molecule Name>
CVD-0005139

> <SMILES>
C[C@H]1[C@H]2[C@H](C[C@@H]3[C@H]4CC[C@H]5C[C@@H](O)CC[C@]5(C)[C@H]4CC(=O)[C@]23C)O[C@]11CC[C@H](C)CO1

$$$$

  CDD

  0  0  0  0  0  0            999 V2000
M  END
> <Molecule Name>
CVD-0005138

> <SMILES>
O=c1c(ccc2[C@@H]3C[C@@H](CN(Cc4ccccc4)C3)Cn12)-c1ccc2ccccc2c1

$$$$

  CDD

  0  0  0  0  0  0            999 V2000
M  END
> <Molecule Name>
CVD-0005137

> <SMILES>
Cn1cc(CN2C[C@@H]3C[C@H](C2)c2ccc(NC(=O)Nc4ccccc4)c(=O)n2C3)c2ccccc12

$$$$

  CDD

  0  0  0  0  0  0            999 V2000
M  END
> <Molecule Name>
CVD-0005136

> <SMILES>
COc1ccc(CN2CC3(C2)N2C[C@H](O)C[C@H]2C(=O)N(Cc2ccccc2F)C3=O)c2ccccc12

$$$$

  CDD

  0  0  0  0  0  0            999 V2000
M  END
> <Molecule Name>
CVD-0005135

> <SMILES>
CC1(C)Oc2ccc3c(oc4COc5cc6OCOc6cc5-c4c3=O)c2C=C1

$$$$

  CDD

  0  0  0  0  0  0            999 V2000
M  END
> <Molecule Name>
CVD-0005134

> <SMILES>
Oc1ccc(cc1O)-c1cc(=O)c2ccc3ccccc3c2o1

$$$$

  CDD

  0  0  0  0  0  0            999 V2000
M  END
> <Molecule Name>
CVD-0005133

> <SMILES>
CC(C)(C)C1C\C(=C/c2ccc3OCOc3c2)C(=O)\C(C1)=C\c1ccc2OCOc2c1

$$$$

  CDD

  0  0  0  0  0  0            999 V2000
M  END
> <Molecule Name>
CVD-0005132

> <SMILES>
Fc1ccc(CN2C[C@@H]3C[C@H](C2)c2c(ccc(=O)n2C3)-c2ccc3ccccc3c2)cc1

$$$$

  CDD

  0  0  0  0  0  0            999 V2000
M  END
> <Molecule Name>
CVD-0005131

> <SMILES>
O=S(=O)(N[C@H]1CO[C@@H]2[C@H](CO[C@H]12)n1nnnc1Oc1cccc(c1)N1CCOCC1)c1ccc2ccccc2c1

$$$$

  CDD

  0  0  0  0  0  0            999 V2000
M  END
> <Molecule Name>
CVD-0005130

> <SMILES>
NC(=O)[C@@H](Cc1c[nH]c2ccccc12)NC(=O)[C@H]1CN(CCN1C(=O)N1CCOCC1)C(=O)c1cccc(F)c1

$$$$

  CDD

  0  0  0  0  0  0            999 V2000
M  END
> <Molecule Name>
CVD-0005129

> <SMILES>
O=C(NC1CCCCC1)N1CCN2[C@H](C1)C(=O)Nc1ccc(cc1C2=O)-c1ccc2OCOc2c1

$$$$

  CDD

  0  0  0  0  0  0            999 V2000
M  END
> <Molecule Name>
CVD-0005128

> <SMILES>
CN1C[C@H](C[C@H]1c1nc(no1)-c1ccc(OC(F)(F)F)cc1)NC(=O)Nc1cccc(F)c1

$$$$

  CDD

  0  0  0  0  0  0            999 V2000
M  END
> <Molecule Name>
CVD-0005127

> <SMILES>
O=C1N[C@@H](Cc2ccccc2)C(=O)N2[C@H]1C[C@@]1([C@@H]2Nc2ccccc12)[C@@]12C[C@@H]3N([C@H]1Nc1ccccc21)C(=O)[C@H](Cc1ccccc1)NC3=O

$$$$

  CDD

  0  0  0  0  0  0            999 V2000
M  END
> <Molecule Name>
CVD-0005126

> <SMILES>
CC(C)(O)CC[C@H]1OC(C)(C)O[C@]1(C)[C@@H]1CC[C@@]2(O)C3=CC(=O)[C@@H]4C[C@H]5OC(C)(C)O[C@H]5C[C@]4(C)[C@H]3CC[C@]12C

$$$$

  CDD

  0  0  0  0  0  0            999 V2000
M  END
> <Molecule Name>
CVD-0005125

> <SMILES>
CC1(C)Oc2ccc3c(N=C4[C@@]3(O)C[C@@]35NC(=O)[C@]6(CCCN6C3=O)C[C@H]5C4(C)C)c2C=C1

$$$$

  CDD

  0  0  0  0  0  0            999 V2000
M  END
> <Molecule Name>
CVD-0005124

> <SMILES>
CN1CCc2cc3OCOc3cc2[C@@]11Cc2ccc3OCOc3c2[C@@H]1C1=C(N)C(=O)NC1=O

$$$$

  CDD

  0  0  0  0  0  0            999 V2000
M  END
> <Molecule Name>
CVD-0005123

> <SMILES>
Cn1c(Oc2cccc(\C=c3\sc4nc5ccccc5n4c3=O)c2)nc2n(C)c(=O)n(C)c(=O)c12

$$$$

  CDD

  0  0  0  0  0  0            999 V2000
M  END
> <Molecule Name>
CVD-0005122

> <SMILES>
Cc1ccc(cc1)S(=O)(=O)NC[C@H]1C[C@@H]2CCN1C[C@@H]2CN1C[C@@H]2C[C@H](C1)c1cccc(=O)n1C2

$$$$

  CDD

  0  0  0  0  0  0            999 V2000
M  END
> <Molecule Name>
CVD-0005121

> <SMILES>
C[C@]12CCC[C@H](O1)c1c(O)c3C(=O)c4c(O)cc(O)cc4C(=O)c3cc1O2

$$$$

  CDD

  0  0  0  0  0  0            999 V2000
M  END
> <Molecule Name>
CVD-0005120

> <SMILES>
C[C@@H]1CCN2C[C@@]34C[C@]5(C(=O)Nc6c5ccc5OC(C)(C)CC(=O)c65)C(C)(C)[C@H]3C[C@@]12C(=O)N4C

$$$$

  CDD

  0  0  0  0  0  0            999 V2000
M  END
> <Molecule Name>
CVD-0005119

> <SMILES>
O\N=C1\C[C@@H](Sc2nc(cc(n2)C(F)(F)F)-c2ccc3ccccc3c2)[C@@H]2CO[C@H]1O2

$$$$

  CDD

  0  0  0  0  0  0            999 V2000
M  END
> <Molecule Name>
CVD-0005118

> <SMILES>
CN1C[C@@H](CCC[C@H](CC1=O)C(=O)NCc1cc(F)cc(F)c1)NC(=O)NC1(CCOCC1)c1ccccc1

$$$$

  CDD

  0  0  0  0  0  0            999 V2000
M  END
> <Molecule Name>
CVD-0005117

> <SMILES>
C[C@H]1[C@@H]2CC[C@@]3(C)Cc4sc(NC(=O)c5ccc(F)c(Cl)c5)nc4[C@@H](C)[C@@H]3[C@H]2OC1=O

$$$$

  CDD

  0  0  0  0  0  0            999 V2000
M  END
> <Molecule Name>
CVD-0005116

> <SMILES>
Cn1c2nc(N3CCN(Cc4ccc5OCOc5c4)CC3)n(CC(=O)c3ccc(Br)cc3)c2c(=O)n(C)c1=O

$$$$

  CDD

  0  0  0  0  0  0            999 V2000
M  END
> <Molecule Name>
CVD-0005115

> <SMILES>
C[C@@H]1C[C@H]2O[C@@]3(O[C@@H]2C(C)(C)O)[C@H](O)[C@@]2(C)C4=CC[C@@H]5[C@]6(C[C@@]46CC[C@]2(C)[C@@H]13)CC[C@H](O)C5(C)C

$$$$

  CDD

  0  0  0  0  0  0            999 V2000
M  END
> <Molecule Name>
CVD-0005114

> <SMILES>
C[C@@H]1C[C@@H]2[C@@](C)(CC[C@]3(C)[C@H]4CCC5=C(C)C(=O)[C@@H](O)C[C@H]5[C@]4(C)CC[C@@]23C)[C@H](O)C1=O

$$$$

  CDD

  0  0  0  0  0  0            999 V2000
M  END
> <Molecule Name>
CVD-0005113

> <SMILES>
OC(=O)[C@H](Cc1cnc[nH]1)NC(=O)c1ccc(cc1)N1C(=O)\C(=C\c2ccccc2)N=C1c1ccccc1

$$$$

  CDD

  0  0  0  0  0  0            999 V2000
M  END
> <Molecule Name>
CVD-0005112

> <SMILES>
COc1ccccc1N1CCN(CC[C@H]2CN(CC[C@H]2CC(O)=O)C(=O)Nc2ccc(cc2)C(F)(F)F)CC1

$$$$

  CDD

  0  0  0  0  0  0            999 V2000
M  END
> <Molecule Name>
CVD-0005111

> <SMILES>
O=C(Nc1cccc2ccccc12)O[C@@H]1CO[C@@H]2[C@H](CO[C@H]12)n1nnnc1-c1ccc2OCCOc2c1

$$$$

  CDD

  0  0  0  0  0  0            999 V2000
M  END
> <Molecule Name>
CVD-0005110

> <SMILES>
COC(=O)C[C@H]1[C@@]2(C)[C@H](O[C@@H]3C[C@H](C(C)=C23)c2ccoc2)[C@@H]2OC[C@@]3(C)[C@H]2[C@]1(C)[C@H](C[C@H]3O)OC(=O)\C=C\c1ccccc1

$$$$

  CDD

  0  0  0  0  0  0            999 V2000
M  END
> <Molecule Name>
CVD-0005109

> <SMILES>
CC1=C(C)C(=O)O[C@@H](C1)[C@](C)(O)[C@]1(O)C[C@H](O)[C@]2(O)[C@H]3CC=C4CC=CC(=O)[C@]4(C)[C@@H]3CC[C@]12C

$$$$

  CDD

  0  0  0  0  0  0            999 V2000
M  END
> <Molecule Name>
CVD-0005108

> <SMILES>
Cc1ccc(cc1)[C@@H]1CC(=Nc2ccccc2N1)c1cc2ccccc2oc1=O

$$$$

  CDD

  0  0  0  0  0  0            999 V2000
M  END
> <Molecule Name>
CVD-0005107

> <SMILES>
CO[C@@H]1[C@@]2(O)N(C(=O)\C3=C\c4c([nH]c5ccccc45)C(C)(C)\C=C/N3C2=O)[C@]23[C@H](C)C(C)(C)N2c2ccccc2[C@]13O

$$$$

  CDD

  0  0  0  0  0  0            999 V2000
M  END
> <Molecule Name>
CVD-0005106

> <SMILES>
C[C@@H]1C[C@@H](C)[C@H]2[C@H]3Oc4ccc(C[C@@]5(O)C[C@@H](C(=O)N5)C(=O)[C@H]5[C@@H]3[C@@H](C(C)=C[C@H]5C=C)[C@@]2(C)C1)cc4

$$$$

  CDD

  0  0  0  0  0  0            999 V2000
M  END
> <Molecule Name>
CVD-0005105

> <SMILES>
CC1=CC[C@]23O[C@@]2(C)CC[C@@H]2[C@H](OC(=O)[C@@]22C[C@@]45C=C[C@]2(C)[C@@H]4[C@H]2OC(=O)C(=C)[C@@H]2CC[C@@]5(C)O)[C@@H]13

$$$$

  CDD

  0  0  0  0  0  0            999 V2000
M  END
> <Molecule Name>
CVD-0005104

> <SMILES>
C[C@@H]1CC[C@H]2C(C)(C)[C@H](O)CC[C@]2(C)[C@@]11Cc2c(O1)c1C(=O)NC(=O)c1cc2O

$$$$

  CDD

  0  0  0  0  0  0            999 V2000
M  END
> <Molecule Name>
CVD-0005103

> <SMILES>
C[C@H]1C[C@@]2(OC(=O)\C=C\c3ccccc3)[C@@H]([C@H]3O[C@]3(C)CC[C@H]3[C@@H](\C=C(CO)/C2=O)C3(C)C)[C@H]1O

$$$$

  CDD

  0  0  0  0  0  0            999 V2000
M  END
> <Molecule Name>
CVD-0005102

> <SMILES>
Cc1cc(=O)oc2cc(Oc3nc(nc4ccccc34)-c3cccnc3)ccc12

$$$$

  CDD

  0  0  0  0  0  0            999 V2000
M  END
> <Molecule Name>
CVD-0005101

> <SMILES>
CC(=C)[C@@]1(O)CC[C@@]2(C)[C@@H](CC=C(C)[C@]22Cc3c(O2)cc(oc3=O)-c2cccnc2)[C@]11CCC(=O)OC1

$$$$

  CDD

  0  0  0  0  0  0            999 V2000
M  END
> <Molecule Name>
CVD-0005100

> <SMILES>
CC1(C)O[C@H]2CC(=O)OC[C@@]22[C@H]1CC(=O)[C@]1(C)[C@@H]2CC[C@@]2(C)[C@@H](OC(=O)[C@H]3O[C@@]123)C1=C[C@@H](O)OC1=O

$$$$

  CDD

  0  0  0  0  0  0            999 V2000
M  END
> <Molecule Name>
CVD-0005099

> <SMILES>
COc1ccc(Cl)c(c1)C(=O)NC[C@H]1O[C@@H](CO)[C@@H](O)[C@H]1N1CCN(CC1)c1cccc(c1)C(F)(F)F

$$$$

  CDD

  0  0  0  0  0  0            999 V2000
M  END
> <Molecule Name>
CVD-0005098

> <SMILES>
COc1cc2O[C@@]3(Oc4cc(O)c(C)c(OC)c4[C@@H]([C@H]3O)c2c2O[C@@H](CCc12)c1ccccc1)c1ccccc1

$$$$

  CDD

  0  0  0  0  0  0            999 V2000
M  END
> <Molecule Name>
CVD-0005097

> <SMILES>
CC(C)(O)[C@@H]1Cc2c(oc3c4C=CC(C)(C)Oc4cc(O)c3c2=O)-c2ccc(O)cc2O1

$$$$

  CDD

  0  0  0  0  0  0            999 V2000
M  END
> <Molecule Name>
CVD-0005096

> <SMILES>
Clc1cccc(NC(=O)N[C@H]2C[C@@H]3N(C2)[C@H](CCC(=O)N2CCc4ccccc24)CNC3=O)c1

$$$$

  CDD

  0  0  0  0  0  0            999 V2000
M  END
> <Molecule Name>
CVD-0005095

> <SMILES>
COC(=O)[C@@]12C(=O)[C@@H](C)OC(=O)[C@@]1(C)C(=C)C[C@@H]1[C@@]3(C)C=CC(=O)C(C)(C)C3=C(O)C(=O)[C@@]21C

$$$$

  CDD

  0  0  0  0  0  0            999 V2000
M  END
> <Molecule Name>
CVD-0005094

> <SMILES>
O=C1Nc2ccccc2[C@@]11[C@@H]2[C@@H](Oc3c1c(=O)oc1ccccc31)c1ccccc1OC2=O

$$$$

  CDD

  0  0  0  0  0  0            999 V2000
M  END
> <Molecule Name>
CVD-0005093

> <SMILES>
COc1c2C(=O)OCc2c(C)c2O[C@]3(C)C[C@H](O)[C@@]45O[C@@](OC)(OC4(C)C)[C@H](O)C[C@]5(C)[C@H]3Cc12

$$$$

  CDD

  0  0  0  0  0  0            999 V2000
M  END
> <Molecule Name>
CVD-0005092

> <SMILES>
O[C@@H]1C[C@@H]2N(C1)C1(CN(Cc3cnc4ccccc4c3)C1)C(=O)N(CCCN1CCCC1=O)C2=O

$$$$

  CDD

  0  0  0  0  0  0            999 V2000
M  END
> <Molecule Name>
CVD-0005091

> <SMILES>
C[C@H](O)[C@]12CC\C=C/C(=O)O[C@H]3C[C@@H]4O[C@H]5C=C(C)CC[C@@]5(COC(=O)[C@H]5O[C@]5(CCO1)[C@H]2O)[C@@]3(C)[C@]41CO1

$$$$

  CDD

  0  0  0  0  0  0            999 V2000
M  END
> <Molecule Name>
CVD-0005090

> <SMILES>
C[C@H]1O[C@H]2OC(=O)[C@]3(C)C[C@H]4[C@]5(CO5)C5=CC(=O)OC(C)(C)C5=CC(=O)[C@]4(C)[C@@H]([C@H]23)C1=O

$$$$

  CDD

  0  0  0  0  0  0            999 V2000
M  END
> <Molecule Name>
CVD-0005089

> <SMILES>
Clc1ccc(NC(=O)N2Cc3nc[nH]c3C[C@H]2c2nc(no2)-c2ccc3OCOc3c2)cc1

$$$$

  CDD

  0  0  0  0  0  0            999 V2000
M  END
> <Molecule Name>
CVD-0005088

> <SMILES>
C[C@H]1[C@H]2[C@H](Cc3c[nH]c4ccccc34)NC(=O)[C@@]22[C@@H](\C=C/C[C@H](C)\C=C(C)/[C@@H](O)C(=O)\C=C/C2=O)[C@@H]2O[C@]12C

$$$$

  CDD

  0  0  0  0  0  0            999 V2000
M  END
> <Molecule Name>
CVD-0005087

> <SMILES>
O=C(NC[C@H]1CCCO1)C(\NC(=O)c1ccccc1)=C\c1cn(nc1-c1cc2ccccc2oc1=O)-c1ccccc1

$$$$

  CDD

  0  0  0  0  0  0            999 V2000
M  END
> <Molecule Name>
CVD-0005086

> <SMILES>
C[C@H]1[C@H]2[C@H](C[C@H]3[C@@H]4CC=C5C[C@H](CC[C@]5(C)[C@H]4CC[C@]23C)O[C@@H]2O[C@H](CO)[C@@H](O)[C@H](O)[C@H]2O)O[C@]11CC[C@@H](C)CO1

$$$$

  CDD

  0  0  0  0  0  0            999 V2000
M  END
> <Molecule Name>
CVD-0005085

> <SMILES>
OC(=O)c1ccccc1C(=O)N1C[C@@H]2C[C@H]1C(=O)N(Cc1ccccn1)c1ccccc1O2

$$$$

  CDD

  0  0  0  0  0  0            999 V2000
M  END
> <Molecule Name>
CVD-0005084

> <SMILES>
C[C@@H]1[C@@H]2O[C@@]34O[C@]5(CC[C@]6(C)[C@H]3[C@@H]([C@@H](C)C6=O)[C@@H]2OC1=O)C[C@@]12OC(=O)C[C@@H]1OC(C)(C)[C@H]2C[C@@H](O)[C@@H]5C4=O

$$$$

  CDD

  0  0  0  0  0  0            999 V2000
M  END
> <Molecule Name>
CVD-0005083

> <SMILES>
C[C@@H]1N[C@@H]2N(C1=O)c1ccccc1[C@@]21C[C@H]2C(=O)N(C)[C@@H](O1)c1nc3ccccc3c(=O)n21

$$$$

  CDD

  0  0  0  0  0  0            999 V2000
M  END
> <Molecule Name>
CVD-0005082

> <SMILES>
C[C@H]1OC(=O)[C@]23C(=C)[C@@](C)(C[C@H]4[C@@]5(C)O[C@@H]([C@H]6O[C@@]66C5=CC(=O)OC6(C)C)[C@]24C)C(=O)[C@]13O

$$$$

  CDD

  0  0  0  0  0  0            999 V2000
M  END
> <Molecule Name>
CVD-0005081

> <SMILES>
O=C(N[C@H]1CCN2[C@@H]1C(=O)N[C@H](Cc1c[nH]c3ccccc13)C2=O)c1ccccc1

$$$$

  CDD

  0  0  0  0  0  0            999 V2000
M  END
> <Molecule Name>
CVD-0005080

> <SMILES>
CC1(C)CC[C@@]23CC[C@]4(C)[C@](OC2=O)([C@H]2O[C@H]2[C@@H]2[C@@]5(C)CCC(=O)C(C)(C)[C@@H]5CC[C@@]42C)[C@@H]3C1

$$$$

  CDD

  0  0  0  0  0  0            999 V2000
M  END
> <Molecule Name>
CVD-0005079

> <SMILES>
Fc1ccc(cc1)N1CCN(CC1)C(=O)C[C@@H]1CCNC[C@@H]1Cc1cc(on1)C(=O)N1CCN(CC1)c1ccc(F)cc1

$$$$

  CDD

  0  0  0  0  0  0            999 V2000
M  END
> <Molecule Name>
CVD-0005078

> <SMILES>
Fc1ccc(cc1)C(=O)N1C[C@@H]2C[C@H](C1)c1c(NC(=O)c3ccc4OCOc4c3)ccc(=O)n1C2

$$$$

  CDD

  0  0  0  0  0  0            999 V2000
M  END
> <Molecule Name>
CVD-0005077

> <SMILES>
Cc1ccncc1NC(=O)Cc1cccc(OC2CC(=O)N2)c1

$$$$

  CDD

  0  0  0  0  0  0            999 V2000
M  END
> <Molecule Name>
CVD-0005076

> <SMILES>
CN1CCN(CC(=O)Nc2cnccc2C)CC1

$$$$

  CDD

  0  0  0  0  0  0            999 V2000
M  END
> <Molecule Name>
CVD-0005075

> <SMILES>
CC(=O)N1CCN(CC(=O)Nc2cnccc2C)CC1

$$$$

  CDD

  0  0  0  0  0  0            999 V2000
M  END
> <Molecule Name>
CVD-0005074

> <SMILES>
Cc1ccncc1NC(=O)CCc1ccccc1F

$$$$

  CDD

  0  0  0  0  0  0            999 V2000
M  END
> <Molecule Name>
CVD-0005073

> <SMILES>
Cc1ccncc1NC(=O)CCc1cccc(F)c1

$$$$

  CDD

  0  0  0  0  0  0            999 V2000
M  END
> <Molecule Name>
CVD-0005072

> <SMILES>
Cc1ccncc1NC(=O)CCc1ccc(F)cc1

$$$$

  CDD

  0  0  0  0  0  0            999 V2000
M  END
> <Molecule Name>
CVD-0005071

> <SMILES>
Cc1ccncc1NC(=O)CCc1ccccn1

$$$$

  CDD

  0  0  0  0  0  0            999 V2000
M  END
> <Molecule Name>
CVD-0005070

> <SMILES>
Cc1ccncc1NC(=O)C(CO)c1ccccc1

$$$$

  CDD

  0  0  0  0  0  0            999 V2000
M  END
> <Molecule Name>
CVD-0005069

> <SMILES>
COCC(C(=O)Nc1cnccc1C)c1ccccc1

$$$$

  CDD

  0  0  0  0  0  0            999 V2000
M  END
> <Molecule Name>
CVD-0005068

> <SMILES>
CC(C(=O)Nc1cncc(O)c1C)c1ccccc1

$$$$

  CDD

  0  0  0  0  0  0            999 V2000
M  END
> <Molecule Name>
CVD-0005067

> <SMILES>
CC(C(=O)Nc1cnccc1O)c1ccccc1

$$$$

  CDD

  0  0  0  0  0  0            999 V2000
M  END
> <Molecule Name>
CVD-0005066

> <SMILES>
CC(Cc1ccccc1)C(=O)Nc1cnccc1C

$$$$

  CDD

  0  0  0  0  0  0            999 V2000
M  END
> <Molecule Name>
CVD-0005065

> <SMILES>
Cc1ccncc1NC(=O)CC(C)(C)c1ccccc1

$$$$

  CDD

  0  0  0  0  0  0            999 V2000
M  END
> <Molecule Name>
CVD-0005064

> <SMILES>
Cc1ccncc1NC(=O)CN1CCCc2ccccc12

$$$$

  CDD

  0  0  0  0  0  0            999 V2000
M  END
> <Molecule Name>
CVD-0005063

> <SMILES>
Cc1ccncc1NC(=O)CN1CCCCC1

$$$$

  CDD

  0  0  0  0  0  0            999 V2000
M  END
> <Molecule Name>
CVD-0005062

> <SMILES>
Cc1ccncc1NC(=O)CN1CCOCC1

$$$$

  CDD

  0  0  0  0  0  0            999 V2000
M  END
> <Molecule Name>
CVD-0005061

> <SMILES>
CC(C(=O)Nc1cncnc1)c1ccccc1

$$$$

  CDD

  0  0  0  0  0  0            999 V2000
M  END
> <Molecule Name>
CVD-0005060

> <SMILES>
O=C(N1CCn2ccnc2C1)c1cc(=O)[nH]c2ccccc12

$$$$

  CDD

  0  0  0  0  0  0            999 V2000
M  END
> <Molecule Name>
CVD-0005059

> <SMILES>
Cc1cc(C)c(C)c(c1C)S(=O)(=O)N1CCN(CC1)C(=O)c1cc[nH]c(=O)c1

$$$$

  CDD

  0  0  0  0  0  0            999 V2000
M  END
> <Molecule Name>
CVD-0005058

> <SMILES>
O=C(N1CCN(CC1)S(=O)(=O)c1ccccc1)c1cc(=O)[nH]c2ccccc12

$$$$

  CDD

  0  0  0  0  0  0            999 V2000
M  END
> <Molecule Name>
CVD-0005057

> <SMILES>
O=C(N1CCN(CC1)C(=O)c1cc(=O)[nH]c2ccccc12)c1ccccc1

$$$$

  CDD

  0  0  0  0  0  0            999 V2000
M  END
> <Molecule Name>
CVD-0005056

> <SMILES>
O=C(NCCOc1ccccc1)c1cc(=O)[nH]c2ccccc12

$$$$

  CDD

  0  0  0  0  0  0            999 V2000
M  END
> <Molecule Name>
CVD-0005055

> <SMILES>
O=C(NCCNc1ccccc1)c1cc(=O)[nH]c2ccccc12

$$$$

  CDD

  0  0  0  0  0  0            999 V2000
M  END
> <Molecule Name>
CVD-0005054

> <SMILES>
CN(CCNC(=O)c1cc(=O)[nH]c2ccccc12)c1ccccc1

$$$$

  CDD

  0  0  0  0  0  0            999 V2000
M  END
> <Molecule Name>
CVD-0005053

> <SMILES>
COc1ccccc1OCCN(C)C(=O)c1cc(=O)[nH]c2ccccc12

$$$$

  CDD

  0  0  0  0  0  0            999 V2000
M  END
> <Molecule Name>
CVD-0005052

> <SMILES>
Fc1ccccc1N1CCN(CC1)C(=O)c1cc(=O)[nH]c2ccccc12

$$$$

  CDD

  0  0  0  0  0  0            999 V2000
M  END
> <Molecule Name>
CVD-0005051

> <SMILES>
Fc1cccc(c1)N1CCN(CC1)C(=O)c1cc(=O)[nH]c2ccccc12

$$$$

  CDD

  0  0  0  0  0  0            999 V2000
M  END
> <Molecule Name>
CVD-0005050

> <SMILES>
Fc1ccc(cc1)N1CCN(CC1)C(=O)c1cc(=O)[nH]c2ccccc12

$$$$

  CDD

  0  0  0  0  0  0            999 V2000
M  END
> <Molecule Name>
CVD-0005049

> <SMILES>
COc1ccccc1N1CCN(CC1)C(=O)c1cc(=O)[nH]c2ccccc12

$$$$

  CDD

  0  0  0  0  0  0            999 V2000
M  END
> <Molecule Name>
CVD-0005048

> <SMILES>
COc1cccc(c1)N1CCN(CC1)C(=O)c1cc(=O)[nH]c2ccccc12

$$$$

  CDD

  0  0  0  0  0  0            999 V2000
M  END
> <Molecule Name>
CVD-0005047

> <SMILES>
COc1ccc(cc1)N1CCN(CC1)C(=O)c1cc(=O)[nH]c2ccccc12

$$$$

  CDD

  0  0  0  0  0  0            999 V2000
M  END
> <Molecule Name>
CVD-0005046

> <SMILES>
O=C(N1CCN(Cc2ccccc2)CC1)c1cc(=O)[nH]c2ccccc12

$$$$

  CDD

  0  0  0  0  0  0            999 V2000
M  END
> <Molecule Name>
CVD-0005045

> <SMILES>
COc1ccccc1OCCNC(=O)c1cc[nH]c(=O)c1

$$$$

  CDD

  0  0  0  0  0  0            999 V2000
M  END
> <Molecule Name>
CVD-0005044

> <SMILES>
ClCC(=O)N1CCCN(CC1)S(=O)(=O)Cc1ccccc1

$$$$

  CDD

  0  0  0  0  0  0            999 V2000
M  END
> <Molecule Name>
CVD-0005043

> <SMILES>
Fc1cccc(F)c1C(=O)N1CCCN(CC1)C(=O)CCl

$$$$

  CDD

  0  0  0  0  0  0            999 V2000
M  END
> <Molecule Name>
CVD-0005042

> <SMILES>
Fc1cccc(c1)S(=O)(=O)C1CCN(CC1)C(=O)CCl

$$$$

  CDD

  0  0  0  0  0  0            999 V2000
M  END
> <Molecule Name>
CVD-0005041

> <SMILES>
Fc1cccc(c1)S(=O)(=O)N1CCC(CC1)C(=O)CCl

$$$$

  CDD

  0  0  0  0  0  0            999 V2000
M  END
> <Molecule Name>
CVD-0005040

> <SMILES>
Fc1cccc(c1)C(=O)C1CCN(CC1)C(=O)CCl

$$$$

  CDD

  0  0  0  0  0  0            999 V2000
M  END
> <Molecule Name>
CVD-0005039

> <SMILES>
Fc1cccc(CN2CCN(CC2=O)C(=O)CCl)c1

$$$$

  CDD

  0  0  0  0  0  0            999 V2000
M  END
> <Molecule Name>
CVD-0005038

> <SMILES>
Fc1cccc(F)c1S(=O)(=O)N1CCC(CC1)C(=O)CCl

$$$$

  CDD

  0  0  0  0  0  0            999 V2000
M  END
> <Molecule Name>
CVD-0005037

> <SMILES>
Fc1cccc(c1)S(=O)(=O)N1CCCN(CC1)C(=O)CCl

$$$$

  CDD

  0  0  0  0  0  0            999 V2000
M  END
> <Molecule Name>
CVD-0005036

> <SMILES>
ClCC(=O)N1CCCN(CC1)S(=O)(=O)c1cccs1

$$$$

  CDD

  0  0  0  0  0  0            999 V2000
M  END
> <Molecule Name>
CVD-0005035

> <SMILES>
Fc1cccc(F)c1S(=O)(=O)N1CCCN(CC1)C(=O)CCl

$$$$

  CDD

  0  0  0  0  0  0            999 V2000
M  END
> <Molecule Name>
CVD-0005034

> <SMILES>
Fc1ccccc1S(=O)(=O)N1CCCN(CC1)C(=O)CCl

$$$$

  CDD

  0  0  0  0  0  0            999 V2000
M  END
> <Molecule Name>
CVD-0005033

> <SMILES>
Fc1ccc(F)c(c1)S(=O)(=O)N1CCCN(CC1)C(=O)CCl

$$$$

  CDD

  0  0  0  0  0  0            999 V2000
M  END
> <Molecule Name>
CVD-0005032

> <SMILES>
ClCC(=O)C1CCN(CC1)S(=O)(=O)c1cccs1

$$$$

  CDD

  0  0  0  0  0  0            999 V2000
M  END
> <Molecule Name>
CVD-0005031

> <SMILES>
CC(C)CCNC(=O)C(CC(C)C)NC(=O)C1OC1C(O)=O

$$$$

  CDD

  0  0  0  0  0  0            999 V2000
M  END
> <Molecule Name>
CVD-0005030

> <SMILES>
CCOC(=O)[C@H]1O[C@@H]1C(=O)N[C@@H](CC(C)C)C(=O)NCCC(C)C

$$$$

  CDD

  0  0  0  0  0  0            999 V2000
M  END
> <Molecule Name>
CVD-0005029

> <SMILES>
Oc1cc(Cl)cc(CN2CCN(CC2)C(=O)CCl)c1

$$$$

  CDD

  0  0  0  0  0  0            999 V2000
M  END
> <Molecule Name>
CVD-0005028

> <SMILES>
C=CC(=O)N1CCN(Cc2c[nH]c3ccc(cc23)C#N)CC1

$$$$

  CDD

  0  0  0  0  0  0            999 V2000
M  END
> <Molecule Name>
CVD-0005027

> <SMILES>
Cc1ccncc1NC(=O)Cc1ccc(cc1C1CN(CCO1)C(=O)C=C)C#N

$$$$

  CDD

  0  0  0  0  0  0            999 V2000
M  END
> <Molecule Name>
CVD-0005026

> <SMILES>
CC(C(=O)N(Cc1cc(C)on1)C(=O)NC1CC1)c1cccc(Cl)c1

$$$$

  CDD

  0  0  0  0  0  0            999 V2000
M  END
> <Molecule Name>
CVD-0005025

> <SMILES>
Cc1cc(CN(C(=O)Cc2cccc(Cl)c2)C(=O)NC2CC2)no1

$$$$

  CDD

  0  0  0  0  0  0            999 V2000
M  END
> <Molecule Name>
CVD-0005024

> <SMILES>
Cc1cc(CN(C(=O)Cc2cccc(c2)C#N)C(=O)NC2CC2)no1

$$$$

  CDD

  0  0  0  0  0  0            999 V2000
M  END
> <Molecule Name>
CVD-0005023

> <SMILES>
Cc1nnc(s1)C(N1CCC=C(F)C1)C(=O)Nc1cnccc1C

$$$$

  CDD

  0  0  0  0  0  0            999 V2000
M  END
> <Molecule Name>
CVD-0005022

> <SMILES>
Cc1nnc(s1)C(C(=O)Nc1cnccc1C)c1cccc(Cl)c1

$$$$

  CDD

  0  0  0  0  0  0            999 V2000
M  END
> <Molecule Name>
CVD-0005021

> <SMILES>
Cc1ccncc1NC(=O)CC(N1CCC(O)CC1)c1csc(c1)C#N

$$$$

  CDD

  0  0  0  0  0  0            999 V2000
M  END
> <Molecule Name>
CVD-0005020

> <SMILES>
Cc1ccncc1NC(=O)C1C(c2cccc(c2)C#N)c2ccccc2CN1C(=O)C=C

$$$$

  CDD

  0  0  0  0  0  0            999 V2000
M  END
> <Molecule Name>
CVD-0005019

> <SMILES>
CC(=O)NC(Cc1ccc(O)cc1)C(=O)Nc1cccc(Cl)c1

$$$$

  CDD

  0  0  0  0  0  0            999 V2000
M  END
> <Molecule Name>
CVD-0005018

> <SMILES>
CC(=O)NC(Cc1ccc(O)cc1)C(=O)Nc1cccc(c1)C#N

$$$$

  CDD

  0  0  0  0  0  0            999 V2000
M  END
> <Molecule Name>
CVD-0005017

> <SMILES>
Cc1ccncc1NC(=O)Cc1cc(ccc1CN1CCC(O)CC1)C#N

$$$$

  CDD

  0  0  0  0  0  0            999 V2000
M  END
> <Molecule Name>
CVD-0005016

> <SMILES>
Fc1cc(OCC2CCOCC2)cc(F)c1N1CCN(CC1)C(=O)CCl

$$$$

  CDD

  0  0  0  0  0  0            999 V2000
M  END
> <Molecule Name>
CVD-0005015

> <SMILES>
Fc1cc(NCC2CC2)cc(F)c1N1CCN(CC1)C(=O)CCl

$$$$

  CDD

  0  0  0  0  0  0            999 V2000
M  END
> <Molecule Name>
CVD-0005014

> <SMILES>
ClCC(=O)N1CCN(CC1)S(=O)(=O)c1ccc(s1)-c1cn[nH]c1

$$$$

  CDD

  0  0  0  0  0  0            999 V2000
M  END
> <Molecule Name>
CVD-0005013

> <SMILES>
ClCC(=O)N1CCN(CC1)S(=O)(=O)c1ccc(OCC2CCOCC2)s1

$$$$

  CDD

  0  0  0  0  0  0            999 V2000
M  END
> <Molecule Name>
CVD-0005012

> <SMILES>
Fc1cc(cc(F)c1N1CCN(CC1)C(=O)CCl)N1CCOCC1

$$$$

  CDD

  0  0  0  0  0  0            999 V2000
M  END
> <Molecule Name>
CVD-0005011

> <SMILES>
ClCC(=O)N1CCN(CC1)S(=O)(=O)c1ccc(s1)-c1ccncc1

$$$$

  CDD

  0  0  0  0  0  0            999 V2000
M  END
> <Molecule Name>
CVD-0005010

> <SMILES>
ClCC(=O)N1CCN(CC1)S(=O)(=O)c1ccc(s1)C1=CCOCC1

$$$$

  CDD

  0  0  0  0  0  0            999 V2000
M  END
> <Molecule Name>
CVD-0005009

> <SMILES>
ClCC(=O)N1CCN(CC1)S(=O)(=O)c1ccc(s1)-c1cncnc1

$$$$

  CDD

  0  0  0  0  0  0            999 V2000
M  END
> <Molecule Name>
CVD-0005008

> <SMILES>
Fc1cccc(CNC(=O)N(c2cc(F)c(N3CCN(CC3)C(=O)CCl)c(F)c2)c2cccc3[nH]ccc23)c1

$$$$

  CDD

  0  0  0  0  0  0            999 V2000
M  END
> <Molecule Name>
CVD-0005007

> <SMILES>
Fc1cc(cc(F)c1N1CCN(CC1)C(=O)CCl)N(C(=O)c1cccnc1)c1cccc2[nH]ccc12

$$$$

  CDD

  0  0  0  0  0  0            999 V2000
M  END
> <Molecule Name>
CVD-0005006

> <SMILES>
Cc1cc(no1)C(=O)N(c1cc(F)c(N2CCN(CC2)C(=O)CCl)c(F)c1)c1cccc2[nH]ccc12

$$$$

  CDD

  0  0  0  0  0  0            999 V2000
M  END
> <Molecule Name>
CVD-0005005

> <SMILES>
Fc1cc(cc(F)c1N1CCN(CC1)C(=O)CCl)N(CC1CC1)C(=O)NC1CCCC1

$$$$

  CDD

  0  0  0  0  0  0            999 V2000
M  END
> <Molecule Name>
CVD-0005004

> <SMILES>
Fc1cc(cc(F)c1N1CCN(CC1)C(=O)CCl)N(c1cccc2[nH]ccc12)S(=O)(=O)c1cccnc1

$$$$

  CDD

  0  0  0  0  0  0            999 V2000
M  END
> <Molecule Name>
CVD-0005003

> <SMILES>
Cc1ccc(nc1)N(c1cc(F)c(N2CCN(CC2)C(=O)CCl)c(F)c1)c1cccc2[nH]ccc12

$$$$

  CDD

  0  0  0  0  0  0            999 V2000
M  END
> <Molecule Name>
CVD-0005002

> <SMILES>
COCC(=O)N(c1cc(F)c(N2CCN(CC2)C(=O)CCl)c(F)c1)c1cccc2[nH]ccc12

$$$$

  CDD

  0  0  0  0  0  0            999 V2000
M  END
> <Molecule Name>
CVD-0005001

> <SMILES>
CN(C)c1cc(F)c(N2CCN(CC2)C(=O)CCl)c(F)c1

$$$$

  CDD

  0  0  0  0  0  0            999 V2000
M  END
> <Molecule Name>
CVD-0005000

> <SMILES>
Cc1noc(C)c1NC(=O)N(c1cc(F)c(N2CCN(CC2)C(=O)CCl)c(F)c1)c1cccc2[nH]ccc12

$$$$

  CDD

  0  0  0  0  0  0            999 V2000
M  END
> <Molecule Name>
CVD-0004999

> <SMILES>
COCCS(=O)(=O)N(c1cc(F)c(N2CCN(CC2)C(=O)CCl)c(F)c1)c1cccc2[nH]ccc12

$$$$

  CDD

  0  0  0  0  0  0            999 V2000
M  END
> <Molecule Name>
CVD-0004998

> <SMILES>
CC(C)C(=O)N(c1cc(F)c(N2CCN(CC2)C(=O)CCl)c(F)c1)c1cccc2[nH]ccc12

$$$$

  CDD

  0  0  0  0  0  0            999 V2000
M  END
> <Molecule Name>
CVD-0004997

> <SMILES>
Fc1cc(cc(F)c1N1CCN(CC1)C(=O)CCl)N(C(=O)NC1CCCC1)c1cccc2[nH]ccc12

$$$$

  CDD

  0  0  0  0  0  0            999 V2000
M  END
> <Molecule Name>
CVD-0004996

> <SMILES>
CC(C)S(=O)(=O)N(c1cc(F)c(N2CCN(CC2)C(=O)CCl)c(F)c1)c1cccc2[nH]ccc12

$$$$

  CDD

  0  0  0  0  0  0            999 V2000
M  END
> <Molecule Name>
CVD-0004995

> <SMILES>
Fc1cccc(CNC(=O)N(CC2CC2)c2cc(F)c(N3CCN(CC3)C(=O)CCl)c(F)c2)c1

$$$$

  CDD

  0  0  0  0  0  0            999 V2000
M  END
> <Molecule Name>
CVD-0004994

> <SMILES>
Fc1ccccc1CC(=O)N(c1cc(F)c(N2CCN(CC2)C(=O)CCl)c(F)c1)c1cccc2[nH]ccc12

$$$$

  CDD

  0  0  0  0  0  0            999 V2000
M  END
> <Molecule Name>
CVD-0004993

> <SMILES>
Cc1cc(no1)S(=O)(=O)N(c1cc(F)c(N2CCN(CC2)C(=O)CCl)c(F)c1)c1cccc2[nH]ccc12

$$$$

  CDD

  0  0  0  0  0  0            999 V2000
M  END
> <Molecule Name>
CVD-0004992

> <SMILES>
Cc1cc(no1)C(=O)N(CC1CC1)c1cc(F)c(N2CCN(CC2)C(=O)CCl)c(F)c1

$$$$

  CDD

  0  0  0  0  0  0            999 V2000
M  END
> <Molecule Name>
CVD-0004991

> <SMILES>
Fc1cc(cc(F)c1N1CCN(CC1)C(=O)CCl)N(C(=O)Nc1ccncc1)c1cccc2[nH]ccc12

$$$$

  CDD

  0  0  0  0  0  0            999 V2000
M  END
> <Molecule Name>
CVD-0004990

> <SMILES>
Fc1cc(Nc2ncccn2)cc(F)c1N1CCN(CC1)C(=O)CCl

$$$$

  CDD

  0  0  0  0  0  0            999 V2000
M  END
> <Molecule Name>
CVD-0004989

> <SMILES>
Fc1cc(cc(F)c1N1CCN(CC1)C(=O)CCl)N(C(=O)Cc1c[nH]c2ccccc12)c1ncccn1

$$$$

  CDD

  0  0  0  0  0  0            999 V2000
M  END
> <Molecule Name>
CVD-0004988

> <SMILES>
COc1ccc(cc1)N(CC1CC1)c1cc(F)c(N2CCN(CC2)C(=O)CCl)c(F)c1

$$$$

  CDD

  0  0  0  0  0  0            999 V2000
M  END
> <Molecule Name>
CVD-0004987

> <SMILES>
Fc1cc(cc(F)c1N1CCN(CC1)C(=O)CCl)N(c1cccc2[nH]ccc12)S(=O)(=O)C(F)(F)F

$$$$

  CDD

  0  0  0  0  0  0            999 V2000
M  END
> <Molecule Name>
CVD-0004986

> <SMILES>
Fc1cc(cc(F)c1N1CCN(CC1)C(=O)CCl)N(CC1CC1)C(=O)c1cccnc1

$$$$

  CDD

  0  0  0  0  0  0            999 V2000
M  END
> <Molecule Name>
CVD-0004985

> <SMILES>
COCCS(=O)(=O)N(CC1CC1)c1cc(F)c(N2CCN(CC2)C(=O)CCl)c(F)c1

$$$$

  CDD

  0  0  0  0  0  0            999 V2000
M  END
> <Molecule Name>
CVD-0004984

> <SMILES>
Cc1ccc(nc1)N(CC1CC1)c1cc(F)c(N2CCN(CC2)C(=O)CCl)c(F)c1

$$$$

  CDD

  0  0  0  0  0  0            999 V2000
M  END
> <Molecule Name>
CVD-0004983

> <SMILES>
Fc1cc(cc(F)c1N1CCN(CC1)C(=O)CCl)N(C(=O)c1cccnc1)c1ncccn1

$$$$

  CDD

  0  0  0  0  0  0            999 V2000
M  END
> <Molecule Name>
CVD-0004982

> <SMILES>
Fc1cc(cc(F)c1N1CCN(CC1)C(=O)CCl)N(CC1CC1)C(=O)Nc1ccncc1

$$$$

  CDD

  0  0  0  0  0  0            999 V2000
M  END
> <Molecule Name>
CVD-0004981

> <SMILES>
Cc1cc(no1)C(=O)N(c1cc(F)c(N2CCN(CC2)C(=O)CCl)c(F)c1)c1ncccn1

$$$$

  CDD

  0  0  0  0  0  0            999 V2000
M  END
> <Molecule Name>
CVD-0004980

> <SMILES>
Cc1noc(C)c1NC(=O)N(CC1CC1)c1cc(F)c(N2CCN(CC2)C(=O)CCl)c(F)c1

$$$$

  CDD

  0  0  0  0  0  0            999 V2000
M  END
> <Molecule Name>
CVD-0004979

> <SMILES>
Fc1cc(cc(F)c1N1CCN(CC1)C(=O)CCl)-c1cn[nH]c1

$$$$

  CDD

  0  0  0  0  0  0            999 V2000
M  END
> <Molecule Name>
CVD-0004978

> <SMILES>
Fc1cc(cc(F)c1N1CCN(CC1)C(=O)CCl)N(c1cncnc1)c1cccc2[nH]ccc12

$$$$

  CDD

  0  0  0  0  0  0            999 V2000
M  END
> <Molecule Name>
CVD-0004977

> <SMILES>
Fc1ccccc1CC(=O)N(CC1CC1)c1cc(F)c(N2CCN(CC2)C(=O)CCl)c(F)c1

$$$$

  CDD

  0  0  0  0  0  0            999 V2000
M  END
> <Molecule Name>
CVD-0004976

> <SMILES>
COCC(=O)N(CC1CC1)c1cc(F)c(N2CCN(CC2)C(=O)CCl)c(F)c1

$$$$

  CDD

  0  0  0  0  0  0            999 V2000
M  END
> <Molecule Name>
CVD-0004975

> <SMILES>
Fc1cc(cc(F)c1N1CCN(CC1)C(=O)CCl)N(CC1CC1)c1cncnc1

$$$$

  CDD

  0  0  0  0  0  0            999 V2000
M  END
> <Molecule Name>
CVD-0004974

> <SMILES>
Fc1cc(cc(F)c1N1CCN(CC1)C(=O)CCl)N(CC1CC1)C(=O)Nc1cccc(c1)C#N

$$$$

  CDD

  0  0  0  0  0  0            999 V2000
M  END
> <Molecule Name>
CVD-0004973

> <SMILES>
Cc1cc(no1)S(=O)(=O)N(CC1CC1)c1cc(F)c(N2CCN(CC2)C(=O)CCl)c(F)c1

$$$$

  CDD

  0  0  0  0  0  0            999 V2000
M  END
> <Molecule Name>
CVD-0004972

> <SMILES>
COc1ccc(cc1)N(c1cc(F)c(N2CCN(CC2)C(=O)CCl)c(F)c1)c1cccc2[nH]ccc12

$$$$

  CDD

  0  0  0  0  0  0            999 V2000
M  END
> <Molecule Name>
CVD-0004971

> <SMILES>
COCC(=O)N(c1cc(F)c(N2CCN(CC2)C(=O)CCl)c(F)c1)c1ncccn1

$$$$

  CDD

  0  0  0  0  0  0            999 V2000
M  END
> <Molecule Name>
CVD-0004970

> <SMILES>
Fc1cc(cc(F)c1N1CCN(CC1)C(=O)CCl)N(CC1CC1)C(=O)Cc1c[nH]c2ccccc12

$$$$

  CDD

  0  0  0  0  0  0            999 V2000
M  END
> <Molecule Name>
CVD-0004969

> <SMILES>
Fc1cc(cc(F)c1N1CCN(CC1)C(=O)CCl)N(C(=O)Nc1cccc(c1)C#N)c1cccc2[nH]ccc12

$$$$

  CDD

  0  0  0  0  0  0            999 V2000
M  END
> <Molecule Name>
CVD-0004968

> <SMILES>
Fc1cc(cc(F)c1N1CCN(CC1)C(=O)CCl)-c1cncnc1

$$$$

  CDD

  0  0  0  0  0  0            999 V2000
M  END
> <Molecule Name>
CVD-0004967

> <SMILES>
CC(C)C(=O)N(CC1CC1)c1cc(F)c(N2CCN(CC2)C(=O)CCl)c(F)c1

$$$$

  CDD

  0  0  0  0  0  0            999 V2000
M  END
> <Molecule Name>
CVD-0004966

> <SMILES>
Fc1cc(cc(F)c1N1CCN(CC1)C(=O)CCl)N(c1ncccn1)S(=O)(=O)c1cccnc1

$$$$

  CDD

  0  0  0  0  0  0            999 V2000
M  END
> <Molecule Name>
CVD-0004965

> <SMILES>
Fc1cc(cc(F)c1N1CCN(CC1)C(=O)CCl)N(CC1CC1)S(=O)(=O)c1cccnc1

$$$$

  CDD

  0  0  0  0  0  0            999 V2000
M  END
> <Molecule Name>
CVD-0004964

> <SMILES>
Fc1cc(cc(F)c1N1CCN(CC1)C(=O)CCl)N(CC1CC1)S(=O)(=O)C(F)(F)F

$$$$

  CDD

  0  0  0  0  0  0            999 V2000
M  END
> <Molecule Name>
CVD-0004963

> <SMILES>
CC(C)S(=O)(=O)N(CC1CC1)c1cc(F)c(N2CCN(CC2)C(=O)CCl)c(F)c1

$$$$

  CDD

  0  0  0  0  0  0            999 V2000
M  END
> <Molecule Name>
CVD-0004962

> <SMILES>
Fc1ccccc1CC(=O)N(c1cc(F)c(N2CCN(CC2)C(=O)CCl)c(F)c1)c1ncccn1

$$$$

  CDD

  0  0  0  0  0  0            999 V2000
M  END
> <Molecule Name>
CVD-0004961

> <SMILES>
CC(C)C(=O)N(c1cc(F)c(N2CCN(CC2)C(=O)CCl)c(F)c1)c1ncccn1

$$$$

  CDD

  0  0  0  0  0  0            999 V2000
M  END
> <Molecule Name>
CVD-0004960

> <SMILES>
Fc1cc(cc(F)c1N1CCN(CC1)C(=O)CCl)N(C(=O)Nc1ccncc1)c1ncccn1

$$$$

  CDD

  0  0  0  0  0  0            999 V2000
M  END
> <Molecule Name>
CVD-0004959

> <SMILES>
Fc1cc(cc(F)c1N1CCN(CC1)C(=O)CCl)N(C(=O)Nc1cccc(c1)C#N)c1ncccn1

$$$$

  CDD

  0  0  0  0  0  0            999 V2000
M  END
> <Molecule Name>
CVD-0004958

> <SMILES>
Fc1cc(cc(F)c1N1CCN(CC1)C(=O)CCl)N(c1cncnc1)c1ncccn1

$$$$

  CDD

  0  0  0  0  0  0            999 V2000
M  END
> <Molecule Name>
CVD-0004957

> <SMILES>
Fc1cc(cc(F)c1N1CCN(CC1)C(=O)CCl)C1=CCOCC1

$$$$

  CDD

  0  0  0  0  0  0            999 V2000
M  END
> <Molecule Name>
CVD-0004956

> <SMILES>
Cc1cc(no1)S(=O)(=O)N(c1cc(F)c(N2CCN(CC2)C(=O)CCl)c(F)c1)c1ncccn1

$$$$

  CDD

  0  0  0  0  0  0            999 V2000
M  END
> <Molecule Name>
CVD-0004955

> <SMILES>
Fc1cc(cc(F)c1N1CCN(CC1)C(=O)CCl)N(C(=O)NC1CCCC1)c1ncccn1

$$$$

  CDD

  0  0  0  0  0  0            999 V2000
M  END
> <Molecule Name>
CVD-0004954

> <SMILES>
Fc1cccc(CNC(=O)N(c2cc(F)c(N3CCN(CC3)C(=O)CCl)c(F)c2)c2ncccn2)c1

$$$$

  CDD

  0  0  0  0  0  0            999 V2000
M  END
> <Molecule Name>
CVD-0004953

> <SMILES>
Cc1noc(C)c1NC(=O)N(c1cc(F)c(N2CCN(CC2)C(=O)CCl)c(F)c1)c1ncccn1

$$$$

  CDD

  0  0  0  0  0  0            999 V2000
M  END
> <Molecule Name>
CVD-0004952

> <SMILES>
Cc1ccc(nc1)N(c1cc(F)c(N2CCN(CC2)C(=O)CCl)c(F)c1)c1ncccn1

$$$$

  CDD

  0  0  0  0  0  0            999 V2000
M  END
> <Molecule Name>
CVD-0004951

> <SMILES>
COCCS(=O)(=O)N(c1cc(F)c(N2CCN(CC2)C(=O)CCl)c(F)c1)c1ncccn1

$$$$

  CDD

  0  0  0  0  0  0            999 V2000
M  END
> <Molecule Name>
CVD-0004950

> <SMILES>
CC(C)S(=O)(=O)N(c1cc(F)c(N2CCN(CC2)C(=O)CCl)c(F)c1)c1ncccn1

$$$$

  CDD

  0  0  0  0  0  0            999 V2000
M  END
> <Molecule Name>
CVD-0004949

> <SMILES>
Fc1cc(cc(F)c1N1CCN(CC1)C(=O)CCl)N(c1ncccn1)S(=O)(=O)C(F)(F)F

$$$$

  CDD

  0  0  0  0  0  0            999 V2000
M  END
> <Molecule Name>
CVD-0004948

> <SMILES>
COc1ccc(cc1)N(c1cc(F)c(N2CCN(CC2)C(=O)CCl)c(F)c1)c1ncccn1

$$$$

  CDD

  0  0  0  0  0  0            999 V2000
M  END
> <Molecule Name>
CVD-0004947

> <SMILES>
Fc1cc(Nc2cccc3[nH]ccc23)cc(F)c1N1CCN(CC1)C(=O)CCl

$$$$

  CDD

  0  0  0  0  0  0            999 V2000
M  END
> <Molecule Name>
CVD-0004946

> <SMILES>
Fc1cc(cc(F)c1N1CCN(CC1)C(=O)CCl)-c1ccncc1

$$$$

  CDD

  0  0  0  0  0  0            999 V2000
M  END
> <Molecule Name>
CVD-0004945

> <SMILES>
ClCC(=O)N1N=C(CC1c1cccs1)c1cccs1

$$$$

  CDD

  0  0  0  0  0  0            999 V2000
M  END
> <Molecule Name>
CVD-0004944

> <SMILES>
COc1ccc(cc1)C1CC(=NN1C(=O)CCl)c1ccccc1

$$$$

  CDD

  0  0  0  0  0  0            999 V2000
M  END
> <Molecule Name>
CVD-0004943

> <SMILES>
COc1ccc(cc1)C1CC(=NN1C(=O)CCl)c1ccc2ccccc2c1

$$$$

  CDD

  0  0  0  0  0  0            999 V2000
M  END
> <Molecule Name>
CVD-0004942

> <SMILES>
ClCC(=O)N1N=C(CC1c1cccs1)c1ccco1

$$$$

  CDD

  0  0  0  0  0  0            999 V2000
M  END
> <Molecule Name>
CVD-0004941

> <SMILES>
ClCC(=O)N1N=C(CC1c1cccc(Cl)c1)c1ccco1

$$$$

  CDD

  0  0  0  0  0  0            999 V2000
M  END
> <Molecule Name>
CVD-0004940

> <SMILES>
COc1cc(ccc1OC(F)F)C1CC(=NN1C(=O)CCl)c1cccs1

$$$$

  CDD

  0  0  0  0  0  0            999 V2000
M  END
> <Molecule Name>
CVD-0004939

> <SMILES>
COc1ccc(cc1OC)C1CC(=NN1C(=O)COC(C)=O)c1cccs1

$$$$

  CDD

  0  0  0  0  0  0            999 V2000
M  END
> <Molecule Name>
CVD-0004938

> <SMILES>
Cc1ccc(cc1)C1=NN(C(C1)c1ccco1)C(=O)CCl

$$$$

  CDD

  0  0  0  0  0  0            999 V2000
M  END
> <Molecule Name>
CVD-0004937

> <SMILES>
ClCC(=O)N1N=C(CC1c1ccco1)c1ccc(Cl)cc1

$$$$

  CDD

  0  0  0  0  0  0            999 V2000
M  END
> <Molecule Name>
CVD-0004936

> <SMILES>
COc1ccc(cc1)C1=NN(C(C1)c1ccco1)C(=O)CCl

$$$$

  CDD

  0  0  0  0  0  0            999 V2000
M  END
> <Molecule Name>
CVD-0004935

> <SMILES>
ClCC(=O)N1N=C(CC1c1ccco1)c1cccs1

$$$$

  CDD

  0  0  0  0  0  0            999 V2000
M  END
> <Molecule Name>
CVD-0004934

> <SMILES>
COc1cc(ccc1OC(F)F)C1CC(=NN1C(=O)COC(C)=O)c1cccs1

$$$$

  CDD

  0  0  0  0  0  0            999 V2000
M  END
> <Molecule Name>
CVD-0004933

> <SMILES>
CNc1ccnc(n1)C#N

$$$$

  CDD

  0  0  0  0  0  0            999 V2000
M  END
> <Molecule Name>
CVD-0004932

> <SMILES>
CSc1cnc(nc1)C#N

$$$$

  CDD

  0  0  0  0  0  0            999 V2000
M  END
> <Molecule Name>
CVD-0004931

> <SMILES>
CSc1ccnc(n1)C#N

$$$$

  CDD

  0  0  0  0  0  0            999 V2000
M  END
> <Molecule Name>
CVD-0004930

> <SMILES>
COc1cnc(nc1)C#N

$$$$

  CDD

  0  0  0  0  0  0            999 V2000
M  END
> <Molecule Name>
CVD-0004929

> <SMILES>
COc1ccnc(n1)C#N

$$$$

  CDD

  0  0  0  0  0  0            999 V2000
M  END
> <Molecule Name>
CVD-0004928

> <SMILES>
CN(c1cncnc1)c1cnc(nc1)C#N

$$$$

  CDD

  0  0  0  0  0  0            999 V2000
M  END
> <Molecule Name>
CVD-0004927

> <SMILES>
N#Cc1ncc(Nc2cncnc2)cn1

$$$$

  CDD

  0  0  0  0  0  0            999 V2000
M  END
> <Molecule Name>
CVD-0004926

> <SMILES>
N#Cc1ncc(Sc2cncnc2)cn1

$$$$

  CDD

  0  0  0  0  0  0            999 V2000
M  END
> <Molecule Name>
CVD-0004925

> <SMILES>
N#Cc1ncc(Oc2cncnc2)cn1

$$$$

  CDD

  0  0  0  0  0  0            999 V2000
M  END
> <Molecule Name>
CVD-0004924

> <SMILES>
Oc1cnc(nc1)C#N

$$$$

  CDD

  0  0  0  0  0  0            999 V2000
M  END
> <Molecule Name>
CVD-0004923

> <SMILES>
N#Cc1ncc(Cc2cncnc2)cn1

$$$$

  CDD

  0  0  0  0  0  0            999 V2000
M  END
> <Molecule Name>
CVD-0004922

> <SMILES>
N#Cc1ncc(cn1)-c1cncnc1

$$$$

  CDD

  0  0  0  0  0  0            999 V2000
M  END
> <Molecule Name>
CVD-0004921

> <SMILES>
CN(c1ccsc1)c1cnc(nc1)C#N

$$$$

  CDD

  0  0  0  0  0  0            999 V2000
M  END
> <Molecule Name>
CVD-0004920

> <SMILES>
CN(c1cccs1)c1cnc(nc1)C#N

$$$$

  CDD

  0  0  0  0  0  0            999 V2000
M  END
> <Molecule Name>
CVD-0004919

> <SMILES>
N#Cc1ncc(Nc2ccsc2)cn1

$$$$

  CDD

  0  0  0  0  0  0            999 V2000
M  END
> <Molecule Name>
CVD-0004918

> <SMILES>
N#Cc1ncc(Nc2cccs2)cn1

$$$$

  CDD

  0  0  0  0  0  0            999 V2000
M  END
> <Molecule Name>
CVD-0004917

> <SMILES>
N#Cc1ncc(Sc2ccsc2)cn1

$$$$

  CDD

  0  0  0  0  0  0            999 V2000
M  END
> <Molecule Name>
CVD-0004916

> <SMILES>
N#Cc1ncc(Sc2cccs2)cn1

$$$$

  CDD

  0  0  0  0  0  0            999 V2000
M  END
> <Molecule Name>
CVD-0004915

> <SMILES>
N#Cc1ncc(Oc2ccsc2)cn1

$$$$

  CDD

  0  0  0  0  0  0            999 V2000
M  END
> <Molecule Name>
CVD-0004914

> <SMILES>
N#Cc1ncc(Oc2cccs2)cn1

$$$$

  CDD

  0  0  0  0  0  0            999 V2000
M  END
> <Molecule Name>
CVD-0004913

> <SMILES>
Oc1ccnc(n1)C#N

$$$$

  CDD

  0  0  0  0  0  0            999 V2000
M  END
> <Molecule Name>
CVD-0004912

> <SMILES>
N#Cc1ncc(Cc2ccsc2)cn1

$$$$

  CDD

  0  0  0  0  0  0            999 V2000
M  END
> <Molecule Name>
CVD-0004911

> <SMILES>
N#Cc1ncc(Cc2cccs2)cn1

$$$$

  CDD

  0  0  0  0  0  0            999 V2000
M  END
> <Molecule Name>
CVD-0004910

> <SMILES>
N#Cc1ncc(cn1)-c1ccsc1

$$$$

  CDD

  0  0  0  0  0  0            999 V2000
M  END
> <Molecule Name>
CVD-0004909

> <SMILES>
N#Cc1ncc(cn1)-c1cccs1

$$$$

  CDD

  0  0  0  0  0  0            999 V2000
M  END
> <Molecule Name>
CVD-0004908

> <SMILES>
CN(c1ccsc1)c1ccnc(n1)C#N

$$$$

  CDD

  0  0  0  0  0  0            999 V2000
M  END
> <Molecule Name>
CVD-0004907

> <SMILES>
N#Cc1nccc(Nc2ccsc2)n1

$$$$

  CDD

  0  0  0  0  0  0            999 V2000
M  END
> <Molecule Name>
CVD-0004906

> <SMILES>
N#Cc1nccc(Oc2ccsc2)n1

$$$$

  CDD

  0  0  0  0  0  0            999 V2000
M  END
> <Molecule Name>
CVD-0004905

> <SMILES>
CN(c1cccs1)c1ccnc(n1)C#N

$$$$

  CDD

  0  0  0  0  0  0            999 V2000
M  END
> <Molecule Name>
CVD-0004904

> <SMILES>
N#Cc1nccc(Nc2cccs2)n1

$$$$

  CDD

  0  0  0  0  0  0            999 V2000
M  END
> <Molecule Name>
CVD-0004903

> <SMILES>
N#Cc1nccc(Oc2cccs2)n1

$$$$

  CDD

  0  0  0  0  0  0            999 V2000
M  END
> <Molecule Name>
CVD-0004902

> <SMILES>
Cc1cnc(nc1)C#N

$$$$

  CDD

  0  0  0  0  0  0            999 V2000
M  END
> <Molecule Name>
CVD-0004901

> <SMILES>
N#Cc1nccc(Cc2cccs2)n1

$$$$

  CDD

  0  0  0  0  0  0            999 V2000
M  END
> <Molecule Name>
CVD-0004900

> <SMILES>
N#Cc1nccc(n1)-c1ccsc1

$$$$

  CDD

  0  0  0  0  0  0            999 V2000
M  END
> <Molecule Name>
CVD-0004899

> <SMILES>
N#Cc1nccc(n1)-c1cccs1

$$$$

  CDD

  0  0  0  0  0  0            999 V2000
M  END
> <Molecule Name>
CVD-0004898

> <SMILES>
N#Cc1nccc(Sc2ccncn2)n1

$$$$

  CDD

  0  0  0  0  0  0            999 V2000
M  END
> <Molecule Name>
CVD-0004897

> <SMILES>
CN(c1ccncn1)c1ccnc(n1)C#N

$$$$

  CDD

  0  0  0  0  0  0            999 V2000
M  END
> <Molecule Name>
CVD-0004896

> <SMILES>
N#Cc1nccc(Nc2ccncn2)n1

$$$$

  CDD

  0  0  0  0  0  0            999 V2000
M  END
> <Molecule Name>
CVD-0004895

> <SMILES>
N#Cc1nccc(Oc2ccncn2)n1

$$$$

  CDD

  0  0  0  0  0  0            999 V2000
M  END
> <Molecule Name>
CVD-0004894

> <SMILES>
N#Cc1nccc(Cc2ccncn2)n1

$$$$

  CDD

  0  0  0  0  0  0            999 V2000
M  END
> <Molecule Name>
CVD-0004893

> <SMILES>
N#Cc1nccc(n1)-c1ccncn1

$$$$

  CDD

  0  0  0  0  0  0            999 V2000
M  END
> <Molecule Name>
CVD-0004892

> <SMILES>
CNc1cnc(nc1)C#N

$$$$

  CDD

  0  0  0  0  0  0            999 V2000
M  END
> <Molecule Name>
CVD-0004891

> <SMILES>
Cc1ccnc(n1)C#N

$$$$

  CDD

  0  0  0  0  0  0            999 V2000
M  END
> <Molecule Name>
CVD-0004890

> <SMILES>
CC(=S)N(CCl)c1cccc(c1)N1CCCC1=O

$$$$

  CDD

  0  0  0  0  0  0            999 V2000
M  END
> <Molecule Name>
CVD-0004889

> <SMILES>
CC(=S)C(CCl)c1cccc(c1)N1CCCC1=O

$$$$

  CDD

  0  0  0  0  0  0            999 V2000
M  END
> <Molecule Name>
CVD-0004888

> <SMILES>
CC(=O)C(CCl)c1cccc(c1)N1CCCC1=O

$$$$

  CDD

  0  0  0  0  0  0            999 V2000
M  END
> <Molecule Name>
CVD-0004887

> <SMILES>
CC(=O)N(CCl)c1cccc(c1)N1CCCC1=O

$$$$

  CDD

  0  0  0  0  0  0            999 V2000
M  END
> <Molecule Name>
CVD-0004886

> <SMILES>
CC1CCC(=O)N1c1cccc(NC(C)=O)c1

$$$$

  CDD

  0  0  0  0  0  0            999 V2000
M  END
> <Molecule Name>
CVD-0004885

> <SMILES>
CC1CN(C(=O)C1)c1cccc(NC(C)=O)c1

$$$$

  CDD

  0  0  0  0  0  0            999 V2000
M  END
> <Molecule Name>
CVD-0004884

> <SMILES>
CC1CCN(C1=O)c1cccc(NC(C)=O)c1

$$$$

  CDD

  0  0  0  0  0  0            999 V2000
M  END
> <Molecule Name>
CVD-0004883

> <SMILES>
CC(=O)N(Cl)c1cccc(c1)N1CCCC1=O

$$$$

  CDD

  0  0  0  0  0  0            999 V2000
M  END
> <Molecule Name>
CVD-0004882

> <SMILES>
CSc1c(NC(C)=O)cccc1N1CCCC1=O

$$$$

  CDD

  0  0  0  0  0  0            999 V2000
M  END
> <Molecule Name>
CVD-0004881

> <SMILES>
CC(O)C(N)c1cccc(c1)N1CCCC1=O

$$$$

  CDD

  0  0  0  0  0  0            999 V2000
M  END
> <Molecule Name>
CVD-0004880

> <SMILES>
CCC(N)c1cccc(c1)N1CCCC1=O

$$$$

  CDD

  0  0  0  0  0  0            999 V2000
M  END
> <Molecule Name>
CVD-0004879

> <SMILES>
COC(C)C(N)c1cccc(c1)N1CCCC1=O

$$$$

  CDD

  0  0  0  0  0  0            999 V2000
M  END
> <Molecule Name>
CVD-0004878

> <SMILES>
COC(C)C(C)c1cccc(c1)N1CCCC1=O

$$$$

  CDD

  0  0  0  0  0  0            999 V2000
M  END
> <Molecule Name>
CVD-0004877

> <SMILES>
CC(=O)Nc1cccc(c1)N1CCCC1=S

$$$$

  CDD

  0  0  0  0  0  0            999 V2000
M  END
> <Molecule Name>
CVD-0004876

> <SMILES>
CC(=O)Sc1cccc(c1)N1CCCC1=O

$$$$

  CDD

  0  0  0  0  0  0            999 V2000
M  END
> <Molecule Name>
CVD-0004875

> <SMILES>
CC(=O)Nc1cccc(c1)N1CCCC1OO

$$$$

  CDD

  0  0  0  0  0  0            999 V2000
M  END
> <Molecule Name>
CVD-0004874

> <SMILES>
CC(=O)Nc1cccc(c1)N1CCC(O)C1

$$$$

  CDD

  0  0  0  0  0  0            999 V2000
M  END
> <Molecule Name>
CVD-0004873

> <SMILES>
CC(=O)Nc1cccc(c1)N1CCCC1CO

$$$$

  CDD

  0  0  0  0  0  0            999 V2000
M  END
> <Molecule Name>
CVD-0004872

> <SMILES>
CC(=O)Nc1cccc(c1)N1CCC(CO)C1

$$$$

  CDD

  0  0  0  0  0  0            999 V2000
M  END
> <Molecule Name>
CVD-0004871

> <SMILES>
CC(=O)Nc1cccc(c1)N1CCC(CCl)C1

$$$$

  CDD

  0  0  0  0  0  0            999 V2000
M  END
> <Molecule Name>
CVD-0004870

> <SMILES>
CCC1CCN(C1)c1cccc(NC(C)=O)c1

$$$$

  CDD

  0  0  0  0  0  0            999 V2000
M  END
> <Molecule Name>
CVD-0004869

> <SMILES>
CC(=O)Nc1cccc(c1)N1CCCC1N

$$$$

  CDD

  0  0  0  0  0  0            999 V2000
M  END
> <Molecule Name>
CVD-0004868

> <SMILES>
CC(=O)Cc1cccc(c1)N1CCCC1=O

$$$$

  CDD

  0  0  0  0  0  0            999 V2000
M  END
> <Molecule Name>
CVD-0004867

> <SMILES>
CC(=O)Nc1cccc(c1)C1CCCC1=O

$$$$

  CDD

  0  0  0  0  0  0            999 V2000
M  END
> <Molecule Name>
CVD-0004866

> <SMILES>
ClCNC(=O)Nc1cccc(c1)N1CCCC1=O

$$$$

  CDD

  0  0  0  0  0  0            999 V2000
M  END
> <Molecule Name>
CVD-0004865

> <SMILES>
CCNC(=O)Nc1cccc(c1)N1CCCC1=O

$$$$

  CDD

  0  0  0  0  0  0            999 V2000
M  END
> <Molecule Name>
CVD-0004864

> <SMILES>
CNC(=O)Nc1cccc(c1)N1CCCC1=O

$$$$

  CDD

  0  0  0  0  0  0            999 V2000
M  END
> <Molecule Name>
CVD-0004863

> <SMILES>
CC(=O)Oc1cccc(c1)N1CCCC1=O

$$$$

  CDD

  0  0  0  0  0  0            999 V2000
M  END
> <Molecule Name>
CVD-0004862

> <SMILES>
CCC(=O)Nc1cccc(c1)N1CCCC1=O

$$$$

  CDD

  0  0  0  0  0  0            999 V2000
M  END
> <Molecule Name>
CVD-0004861

> <SMILES>
NC(=O)Nc1cccc(c1)N1CCCC1=O

$$$$

  CDD

  0  0  0  0  0  0            999 V2000
M  END
> <Molecule Name>
CVD-0004860

> <SMILES>
CC(=O)Nc1cc(ccn1)N1CCCC1=O

$$$$

  CDD

  0  0  0  0  0  0            999 V2000
M  END
> <Molecule Name>
CVD-0004859

> <SMILES>
CC(=O)Nc1cncc(c1)N1CCCC1=O

$$$$

  CDD

  0  0  0  0  0  0            999 V2000
M  END
> <Molecule Name>
CVD-0004858

> <SMILES>
CC(=O)Nc1ccnc(c1)N1CCCC1=O

$$$$

  CDD

  0  0  0  0  0  0            999 V2000
M  END
> <Molecule Name>
CVD-0004857

> <SMILES>
CC(=O)Nc1cccc(n1)N1CCCC1=O

$$$$

  CDD

  0  0  0  0  0  0            999 V2000
M  END
> <Molecule Name>
CVD-0004856

> <SMILES>
CC(=O)Nc1cccc(c1)N1CNCC1=O

$$$$

  CDD

  0  0  0  0  0  0            999 V2000
M  END
> <Molecule Name>
CVD-0004855

> <SMILES>
COc1ccc(cc1NC(C)=O)N1CCCC1=O

$$$$

  CDD

  0  0  0  0  0  0            999 V2000
M  END
> <Molecule Name>
CVD-0004854

> <SMILES>
COc1cc(NC(C)=O)cc(c1)N1CCCC1=O

$$$$

  CDD

  0  0  0  0  0  0            999 V2000
M  END
> <Molecule Name>
CVD-0004853

> <SMILES>
COc1ccc(NC(C)=O)cc1N1CCCC1=O

$$$$

  CDD

  0  0  0  0  0  0            999 V2000
M  END
> <Molecule Name>
CVD-0004852

> <SMILES>
COc1c(NC(C)=O)cccc1N1CCCC1=O

$$$$

  CDD

  0  0  0  0  0  0            999 V2000
M  END
> <Molecule Name>
CVD-0004851

> <SMILES>
CC(=O)Nc1cc(O)cc(c1)N1CCCC1=O

$$$$

  CDD

  0  0  0  0  0  0            999 V2000
M  END
> <Molecule Name>
CVD-0004850

> <SMILES>
CC(=O)Nc1cccc(c1)N1CCNC1=O

$$$$

  CDD

  0  0  0  0  0  0            999 V2000
M  END
> <Molecule Name>
CVD-0004849

> <SMILES>
CC(=O)Nc1cccc(N2CCCC2=O)c1C

$$$$

  CDD

  0  0  0  0  0  0            999 V2000
M  END
> <Molecule Name>
CVD-0004848

> <SMILES>
CC(=O)Nc1cc(ccc1C)N1CCCC1=O

$$$$

  CDD

  0  0  0  0  0  0            999 V2000
M  END
> <Molecule Name>
CVD-0004847

> <SMILES>
CC(=O)Nc1cc(C)cc(c1)N1CCCC1=O

$$$$

  CDD

  0  0  0  0  0  0            999 V2000
M  END
> <Molecule Name>
CVD-0004846

> <SMILES>
CC(=O)Nc1ccc(C)c(c1)N1CCCC1=O

$$$$

  CDD

  0  0  0  0  0  0            999 V2000
M  END
> <Molecule Name>
CVD-0004845

> <SMILES>
CSC1CCCN1c1cccc(NC(C)=O)c1

$$$$

  CDD

  0  0  0  0  0  0            999 V2000
M  END
> <Molecule Name>
CVD-0004844

> <SMILES>
COC1CCCN1c1cccc(NC(C)=O)c1

$$$$

  CDD

  0  0  0  0  0  0            999 V2000
M  END
> <Molecule Name>
CVD-0004843

> <SMILES>
CC(=O)Nc1cccc(c1)N1CCCC1O

$$$$

  CDD

  0  0  0  0  0  0            999 V2000
M  END
> <Molecule Name>
CVD-0004842

> <SMILES>
CC1CCCN1c1cccc(NC(C)=O)c1

$$$$

  CDD

  0  0  0  0  0  0            999 V2000
M  END
> <Molecule Name>
CVD-0004841

> <SMILES>
CN(C(C)=O)c1cccc(c1)N1CCCC1=O

$$$$

  CDD

  0  0  0  0  0  0            999 V2000
M  END
> <Molecule Name>
CVD-0004840

> <SMILES>
CC(=O)Nc1cccc(c1)N1C=CCC1=O

$$$$

  CDD

  0  0  0  0  0  0            999 V2000
M  END
> <Molecule Name>
CVD-0004839

> <SMILES>
CSc1c[nH]c(n1)C#N

$$$$

  CDD

  0  0  0  0  0  0            999 V2000
M  END
> <Molecule Name>
CVD-0004838

> <SMILES>
COc1c[nH]c(n1)C#N

$$$$

  CDD

  0  0  0  0  0  0            999 V2000
M  END
> <Molecule Name>
CVD-0004837

> <SMILES>
CN(c1ccsc1)c1cnc([nH]1)C#N

$$$$

  CDD

  0  0  0  0  0  0            999 V2000
M  END
> <Molecule Name>
CVD-0004836

> <SMILES>
CN(c1cnc([nH]1)C#N)c1cccs1

$$$$

  CDD

  0  0  0  0  0  0            999 V2000
M  END
> <Molecule Name>
CVD-0004835

> <SMILES>
Oc1c[nH]c(n1)C#N

$$$$

  CDD

  0  0  0  0  0  0            999 V2000
M  END
> <Molecule Name>
CVD-0004834

> <SMILES>
N#Cc1ncc(Sc2ccsc2)[nH]1

$$$$

  CDD

  0  0  0  0  0  0            999 V2000
M  END
> <Molecule Name>
CVD-0004833

> <SMILES>
N#Cc1ncc(Sc2cccs2)[nH]1

$$$$

  CDD

  0  0  0  0  0  0            999 V2000
M  END
> <Molecule Name>
CVD-0004832

> <SMILES>
N#Cc1ncc(Nc2ccsc2)[nH]1

$$$$

  CDD

  0  0  0  0  0  0            999 V2000
M  END
> <Molecule Name>
CVD-0004831

> <SMILES>
N#Cc1ncc(Nc2cccs2)[nH]1

$$$$

  CDD

  0  0  0  0  0  0            999 V2000
M  END
> <Molecule Name>
CVD-0004830

> <SMILES>
N#Cc1ncc(Oc2ccsc2)[nH]1

$$$$

  CDD

  0  0  0  0  0  0            999 V2000
M  END
> <Molecule Name>
CVD-0004829

> <SMILES>
N#Cc1ncc(Oc2cccs2)[nH]1

$$$$

  CDD

  0  0  0  0  0  0            999 V2000
M  END
> <Molecule Name>
CVD-0004828

> <SMILES>
N#Cc1ncc([nH]1)-c1ccsc1

$$$$

  CDD

  0  0  0  0  0  0            999 V2000
M  END
> <Molecule Name>
CVD-0004827

> <SMILES>
N#Cc1nccn1-c1ccsc1

$$$$

  CDD

  0  0  0  0  0  0            999 V2000
M  END
> <Molecule Name>
CVD-0004826

> <SMILES>
N#Cc1nccn1-c1cccs1

$$$$

  CDD

  0  0  0  0  0  0            999 V2000
M  END
> <Molecule Name>
CVD-0004825

> <SMILES>
N#Cc1ncc([nH]1)-c1cccs1

$$$$

  CDD

  0  0  0  0  0  0            999 V2000
M  END
> <Molecule Name>
CVD-0004824

> <SMILES>
N#Cc1ncc([nH]1)-c1cnc[nH]1

$$$$

  CDD

  0  0  0  0  0  0            999 V2000
M  END
> <Molecule Name>
CVD-0004823

> <SMILES>
N#Cc1ncc(Cc2cnc[nH]2)[nH]1

$$$$

  CDD

  0  0  0  0  0  0            999 V2000
M  END
> <Molecule Name>
CVD-0004822

> <SMILES>
Cc1ncc(Cc2cnc([nH]2)C#N)[nH]1

$$$$

  CDD

  0  0  0  0  0  0            999 V2000
M  END
> <Molecule Name>
CVD-0004821

> <SMILES>
CNc1cnc([nH]1)C#N

$$$$

  CDD

  0  0  0  0  0  0            999 V2000
M  END
> <Molecule Name>
CVD-0004820

> <SMILES>
Cc1cnc([nH]1)C#N

$$$$

  CDD

  0  0  0  0  0  0            999 V2000
M  END
> <Molecule Name>
CVD-0004819

> <SMILES>
Cc1oncc1C(=O)Nc1ccc(cc1)S(F)(F)(F)(F)F

$$$$

  CDD

  0  0  0  0  0  0            999 V2000
M  END
> <Molecule Name>
CVD-0004818

> <SMILES>
CC(C)NC(=O)N[C@@H]1N=CCN2N=C3[C@H](NC(C)C(N)=O)N=CCN3N=C12

$$$$

  CDD

  0  0  0  0  0  0            999 V2000
M  END
> <Molecule Name>
CVD-0004817

> <SMILES>
CCNC(=O)N[C@@H]1C(C)=CN2N=C3[C@@H](NC=C(C)N3N=C12)c1nnc(=O)[nH]n1

$$$$

  CDD

  0  0  0  0  0  0            999 V2000
M  END
> <Molecule Name>
CVD-0004816

> <SMILES>
CCC1N=C[C@@H](NC(=O)NC(C)C)C2=NN3C=C(Cl)[C@H](C3=NN12)n1ccc(n1)C(C)=O

$$$$

  CDD

  0  0  0  0  0  0            999 V2000
M  END
> <Molecule Name>
CVD-0004815

> <SMILES>
CN(C)CCNC(=O)C(N(C(=O)C=C)c1cc(on1)C(C)(C)C)c1cccnc1

$$$$

  CDD

  0  0  0  0  0  0            999 V2000
M  END
> <Molecule Name>
CVD-0004814

> <SMILES>
CN1CCC(CC1)NC(=O)C(N(C(=O)C=C)c1cc(on1)C(C)(C)C)c1cccnc1

$$$$

  CDD

  0  0  0  0  0  0            999 V2000
M  END
> <Molecule Name>
CVD-0004813

> <SMILES>
CC(C)(C)c1cc(no1)N(C(C(=O)NC1CCC1)c1cccnc1)C(=O)C=C

$$$$

  CDD

  0  0  0  0  0  0            999 V2000
M  END
> <Molecule Name>
CVD-0004812

> <SMILES>
CC(C)(C)c1cc(no1)N(C(C(=O)NC1CCCC1)c1cccnc1)C(=O)C=C

$$$$

  CDD

  0  0  0  0  0  0            999 V2000
M  END
> <Molecule Name>
CVD-0004811

> <SMILES>
CC(C)(C)NC(=O)C(N(C(=O)C(=O)CNCc1ccccc1)c1cc(on1)C(C)(C)C)c1cccnc1

$$$$

  CDD

  0  0  0  0  0  0            999 V2000
M  END
> <Molecule Name>
CVD-0004810

> <SMILES>
CC(=O)C(=O)N(C(C(=O)NC(C)(C)C)c1cccnc1)c1cc(on1)C(C)(C)C

$$$$

  CDD

  0  0  0  0  0  0            999 V2000
M  END
> <Molecule Name>
CVD-0004809

> <SMILES>
CC(C)(C)NC(=O)C(N(C(=O)\C=C\c1ccccc1)c1cc(on1)C(C)(C)C)c1cccnc1

$$$$

  CDD

  0  0  0  0  0  0            999 V2000
M  END
> <Molecule Name>
CVD-0004808

> <SMILES>
CC(C)(C)NC(=O)C(N(C(=O)C=C)c1cc(CC2CC2)on1)c1cccnc1

$$$$

  CDD

  0  0  0  0  0  0            999 V2000
M  END
> <Molecule Name>
CVD-0004807

> <SMILES>
CC(C)(C)NC(=O)C(N(C(=O)C=C)c1cc(on1)C1CC1)c1cccnc1

$$$$

  CDD

  0  0  0  0  0  0            999 V2000
M  END
> <Molecule Name>
CVD-0004806

> <SMILES>
CCC(=O)N(C(C(=O)Nc1c(C)cccc1CC)c1cccnc1)c1ccc(cc1)C(F)(F)F

$$$$

  CDD

  0  0  0  0  0  0            999 V2000
M  END
> <Molecule Name>
CVD-0004805

> <SMILES>
CC(C)(C)NC(=O)C(N(C(=O)C=C)c1cc(on1)C(C)(C)C)c1cc[nH]c(=O)c1

$$$$

  CDD

  0  0  0  0  0  0            999 V2000
M  END
> <Molecule Name>
CVD-0004804

> <SMILES>
CC(C)(C)Nc1cc(NC(=O)C(N(C(=O)C=C)c2cc(on2)C(C)(C)C)c2cccnc2)ccn1

$$$$

  CDD

  0  0  0  0  0  0            999 V2000
M  END
> <Molecule Name>
CVD-0004803

> <SMILES>
CC(C)(C)NC(=O)C(N(C(=O)C=C)c1cc(on1)C(C)(C)C)c1cncc2ccccc12

$$$$

  CDD

  0  0  0  0  0  0            999 V2000
M  END
> <Molecule Name>
CVD-0004802

> <SMILES>
CC(C)(C)NC(=O)C(N(C(=O)C=C)c1cc(on1)C(C)(C)C)c1ccncc1

$$$$

  CDD

  0  0  0  0  0  0            999 V2000
M  END
> <Molecule Name>
CVD-0004801

> <SMILES>
CC(C)(C)NC(=O)C(N(C(=O)C=C)c1cc(on1)C(C)(C)C)c1ccccn1

$$$$

  CDD

  0  0  0  0  0  0            999 V2000
M  END
> <Molecule Name>
CVD-0004800

> <SMILES>
CC(C)(C)NC(=O)C(N(C(=O)C=C)c1cc(on1)C(C)(C)C)c1ccccc1

$$$$

  CDD

  0  0  0  0  0  0            999 V2000
M  END
> <Molecule Name>
CVD-0004799

> <SMILES>
CC(C)(C)NC(=O)C(N(C1CC2(C1)CN(C2)C1CC1)C(=O)C=C)c1cccnc1

$$$$

  CDD

  0  0  0  0  0  0            999 V2000
M  END
> <Molecule Name>
CVD-0004798

> <SMILES>
CC(C)(C)NC(=O)C(N(C1CN(C1)C1CC1)C(=O)C=C)c1cccnc1

$$$$

  CDD

  0  0  0  0  0  0            999 V2000
M  END
> <Molecule Name>
CVD-0004797

> <SMILES>
CC(C)(C)NC(=O)C(N(C1CCN(CC1)C1CC1)C(=O)C=C)c1cccnc1

$$$$

  CDD

  0  0  0  0  0  0            999 V2000
M  END
> <Molecule Name>
CVD-0004796

> <SMILES>
CC(C)(C)NC(=O)C(N(C1CC2(C1)CN(C2)C(C)(C)C)C(=O)C=C)c1cccnc1

$$$$

  CDD

  0  0  0  0  0  0            999 V2000
M  END
> <Molecule Name>
CVD-0004795

> <SMILES>
CCc1cccc(C)c1NC(=O)[C@H](N(C(=O)C=C)c1ccc(cc1)C(F)(F)F)c1cccnc1

$$$$

  CDD

  0  0  0  0  0  0            999 V2000
M  END
> <Molecule Name>
CVD-0004794

> <SMILES>
CC(C)(C)NC(=O)C(N(C1CN(C1)C(C)(C)C)C(=O)C=C)c1cccnc1

$$$$

  CDD

  0  0  0  0  0  0            999 V2000
M  END
> <Molecule Name>
CVD-0004793

> <SMILES>
CC(C)(C)NC(=O)C(N(C1CCN(CC1)C(C)(C)C)C(=O)C=C)c1cccnc1

$$$$

  CDD

  0  0  0  0  0  0            999 V2000
M  END
> <Molecule Name>
CVD-0004792

> <SMILES>
CC(C)c1cc(ccc1N(C(C(=O)NC(C)(C)C)c1cccnc1)C(=O)C=C)C(F)(F)F

$$$$

  CDD

  0  0  0  0  0  0            999 V2000
M  END
> <Molecule Name>
CVD-0004791

> <SMILES>
CCc1cc(ccc1N(C(C(=O)NC(C)(C)C)c1cccnc1)C(=O)C=C)C(F)(F)F

$$$$

  CDD

  0  0  0  0  0  0            999 V2000
M  END
> <Molecule Name>
CVD-0004790

> <SMILES>
Cc1cc(ccc1N(C(C(=O)NC(C)(C)C)c1cccnc1)C(=O)C=C)C(F)(F)F

$$$$

  CDD

  0  0  0  0  0  0            999 V2000
M  END
> <Molecule Name>
CVD-0004789

> <SMILES>
CC(C)(C)NC(=O)C(N(C(=O)C=C)c1cc(nn1Cc1ccccc1)C(C)(C)C)c1cccnc1

$$$$

  CDD

  0  0  0  0  0  0            999 V2000
M  END
> <Molecule Name>
CVD-0004788

> <SMILES>
CC(C)n1nc(cc1N(C(C(=O)NC(C)(C)C)c1cccnc1)C(=O)C=C)C(C)(C)C

$$$$

  CDD

  0  0  0  0  0  0            999 V2000
M  END
> <Molecule Name>
CVD-0004787

> <SMILES>
CCn1nc(cc1N(C(C(=O)NC(C)(C)C)c1cccnc1)C(=O)C=C)C(C)(C)C

$$$$

  CDD

  0  0  0  0  0  0            999 V2000
M  END
> <Molecule Name>
CVD-0004786

> <SMILES>
Cn1nc(cc1N(C(C(=O)NC(C)(C)C)c1cccnc1)C(=O)C=C)C(C)(C)C

$$$$

  CDD

  0  0  0  0  0  0            999 V2000
M  END
> <Molecule Name>
CVD-0004785

> <SMILES>
CN1CCN(CCNC(=O)C(N(C(=O)C=C)c2cc(on2)C(C)(C)C)c2cccnc2)CC1

$$$$

  CDD

  0  0  0  0  0  0            999 V2000
M  END
> <Molecule Name>
CVD-0004784

> <SMILES>
CCc1cccc(C)c1NC(=O)[C@@H](N(C(=O)C=C)c1ccc(cc1)C(F)(F)F)c1cccnc1

$$$$

  CDD

  0  0  0  0  0  0            999 V2000
M  END
> <Molecule Name>
CVD-0004783

> <SMILES>
Cc1ccncc1NC(=O)CC1CCCNC1

$$$$

  CDD

  0  0  0  0  0  0            999 V2000
M  END
> <Molecule Name>
CVD-0004782

> <SMILES>
CCCCOc1ccc(Cl)cc1CC(=O)Nc1cnccc1C

$$$$

  CDD

  0  0  0  0  0  0            999 V2000
M  END
> <Molecule Name>
CVD-0004781

> <SMILES>
Cc1ccncc1NC(=N)Cc1cccc(Cl)c1

$$$$

  CDD

  0  0  0  0  0  0            999 V2000
M  END
> <Molecule Name>
CVD-0004780

> <SMILES>
Cc1ccncc1NC(=O)C(CO)c1cccc(Cl)c1

$$$$

  CDD

  0  0  0  0  0  0            999 V2000
M  END
> <Molecule Name>
CVD-0004779

> <SMILES>
CN(C(=O)Nc1cnccc1C)c1cccc(Cl)c1

$$$$

  CDD

  0  0  0  0  0  0            999 V2000
M  END
> <Molecule Name>
CVD-0004778

> <SMILES>
Cc1[nH]ncc1NC(=O)Cc1cccc(Cl)c1

$$$$

  CDD

  0  0  0  0  0  0            999 V2000
M  END
> <Molecule Name>
CVD-0004777

> <SMILES>
Cc1ccncc1NC(=O)N(Cc1ccccc1)c1cccc(Cl)c1

$$$$

  CDD

  0  0  0  0  0  0            999 V2000
M  END
> <Molecule Name>
CVD-0004776

> <SMILES>
Clc1cccc(CC(=O)Nc2cccnc2)c1

$$$$

  CDD

  0  0  0  0  0  0            999 V2000
M  END
> <Molecule Name>
CVD-0004775

> <SMILES>
Cc1ccncc1NC(=O)N(c1cccc(Cl)c1)c1cccc(Cl)c1

$$$$

  CDD

  0  0  0  0  0  0            999 V2000
M  END
> <Molecule Name>
CVD-0004774

> <SMILES>
Cc1ccnc(N)c1NC(=O)Cc1cccc(Cl)c1

$$$$

  CDD

  0  0  0  0  0  0            999 V2000
M  END
> <Molecule Name>
CVD-0004773

> <SMILES>
Cc1cc(N)ncc1NC(=O)Cc1cccc(Cl)c1

$$$$

  CDD

  0  0  0  0  0  0            999 V2000
M  END
> <Molecule Name>
CVD-0004772

> <SMILES>
Cc1cnncc1NC(=O)Cc1cccc(Cl)c1

$$$$

  CDD

  0  0  0  0  0  0            999 V2000
M  END
> <Molecule Name>
CVD-0004771

> <SMILES>
Cc1ccnnc1NC(=O)Cc1cccc(Cl)c1

$$$$

  CDD

  0  0  0  0  0  0            999 V2000
M  END
> <Molecule Name>
CVD-0004770

> <SMILES>
Cc1ncccc1NC(=O)Cc1cccc(Cl)c1

$$$$

  CDD

  0  0  0  0  0  0            999 V2000
M  END
> <Molecule Name>
CVD-0004769

> <SMILES>
Cc1ccc(NC(=O)Cc2cccc(Cl)c2)cn1

$$$$

  CDD

  0  0  0  0  0  0            999 V2000
M  END
> <Molecule Name>
CVD-0004768

> <SMILES>
Cc1cncc(NC(=O)Cc2cccc(Cl)c2)c1

$$$$

  CDD

  0  0  0  0  0  0            999 V2000
M  END
> <Molecule Name>
CVD-0004767

> <SMILES>
Cc1ccncc1NC(=O)Nc1ccc(OC2CC(=O)N2)s1

$$$$

  CDD

  0  0  0  0  0  0            999 V2000
M  END
> <Molecule Name>
CVD-0004766

> <SMILES>
Cc1ccncc1NC(=O)Nc1ccc(COC2CC(=O)N2)s1

$$$$

  CDD

  0  0  0  0  0  0            999 V2000
M  END
> <Molecule Name>
CVD-0004765

> <SMILES>
O=C(Nc1ccc(OC2CC(=O)N2)s1)Nc1cccnc1

$$$$

  CDD

  0  0  0  0  0  0            999 V2000
M  END
> <Molecule Name>
CVD-0004764

> <SMILES>
O=C(Nc1ccc(COC2CC(=O)N2)s1)Nc1cccnc1

$$$$

  CDD

  0  0  0  0  0  0            999 V2000
M  END
> <Molecule Name>
CVD-0004763

> <SMILES>
Cc1ccncc1CC(=O)Nc1cc(OC2CC(=O)N2)cc(c1)C#N

$$$$

  CDD

  0  0  0  0  0  0            999 V2000
M  END
> <Molecule Name>
CVD-0004762

> <SMILES>
O=C(Cc1cncnc1)Nc1cc(OC2CC(=O)N2)cc(c1)C#N

$$$$

  CDD

  0  0  0  0  0  0            999 V2000
M  END
> <Molecule Name>
CVD-0004761

> <SMILES>
C=CC(=O)N(C(=O)Cc1cc(OC2CC(=O)N2)cc(c1)C#N)c1cccnc1

$$$$

  CDD

  0  0  0  0  0  0            999 V2000
M  END
> <Molecule Name>
CVD-0004760

> <SMILES>
C=CC(=O)N(C(=O)Cc1cccc(OC2CC(=O)N2)c1)c1cccnc1

$$$$

  CDD

  0  0  0  0  0  0            999 V2000
M  END
> <Molecule Name>
CVD-0004759

> <SMILES>
C=CC(=O)N(C(=O)Cc1cc(OC2CC(=O)N2)cc(c1)C#N)c1cncnc1

$$$$

  CDD

  0  0  0  0  0  0            999 V2000
M  END
> <Molecule Name>
CVD-0004758

> <SMILES>
C=CC(=O)N(C(=O)Cc1cccc(OC2CC(=O)N2)c1)c1cncnc1

$$$$

  CDD

  0  0  0  0  0  0            999 V2000
M  END
> <Molecule Name>
CVD-0004757

> <SMILES>
Cc1ccncc1N(C(=O)Cc1cc(OC2CC(=O)N2)cc(c1)C#N)C(=O)C=C

$$$$

  CDD

  0  0  0  0  0  0            999 V2000
M  END
> <Molecule Name>
CVD-0004756

> <SMILES>
Cc1ccncc1N(C(=O)Cc1cccc(OC2CC(=O)N2)c1)C(=O)C=C

$$$$

  CDD

  0  0  0  0  0  0            999 V2000
M  END
> <Molecule Name>
CVD-0004755

> <SMILES>
CC(C(=O)Nc1cnccc1C)c1cc(Cl)cc(OC2CC(=O)N2)c1

$$$$

  CDD

  0  0  0  0  0  0            999 V2000
M  END
> <Molecule Name>
CVD-0004754

> <SMILES>
Cc1ccncc1NC(=O)Cc1cc(Cl)cc(OC2CC(=O)N2)c1

$$$$

  CDD

  0  0  0  0  0  0            999 V2000
M  END
> <Molecule Name>
CVD-0004753

> <SMILES>
Cc1ccncc1NC(=O)Cc1cc(OC2CC(=O)N2)cc(c1)C#N

$$$$

  CDD

  0  0  0  0  0  0            999 V2000
M  END
> <Molecule Name>
CVD-0004752

> <SMILES>
CC(C(=O)Nc1cnccc1C)c1cncc(Cl)c1

$$$$

  CDD

  0  0  0  0  0  0            999 V2000
M  END
> <Molecule Name>
CVD-0004751

> <SMILES>
Cc1ccncc1NC(=O)Cc1cncc(Cl)c1

$$$$

  CDD

  0  0  0  0  0  0            999 V2000
M  END
> <Molecule Name>
CVD-0004750

> <SMILES>
Cc1ccncc1NC(=O)Cc1cncc(c1)C#N

$$$$

  CDD

  0  0  0  0  0  0            999 V2000
M  END
> <Molecule Name>
CVD-0004749

> <SMILES>
C=CC(=O)NC(C(=O)NCc1cc2ccccc2o1)c1cccnc1

$$$$

  CDD

  0  0  0  0  0  0            999 V2000
M  END
> <Molecule Name>
CVD-0004748

> <SMILES>
C=CC(=O)NC(C(=O)NCc1ccc2ccccc2c1)c1cccnc1

$$$$

  CDD

  0  0  0  0  0  0            999 V2000
M  END
> <Molecule Name>
CVD-0004747

> <SMILES>
C=CC(=O)NC(C(=O)NCc1cc2ccccc2[nH]1)c1cccnc1

$$$$

  CDD

  0  0  0  0  0  0            999 V2000
M  END
> <Molecule Name>
CVD-0004746

> <SMILES>
CCCNC(=O)C(NC(=O)C=C)c1cccnc1

$$$$

  CDD

  0  0  0  0  0  0            999 V2000
M  END
> <Molecule Name>
CVD-0004745

> <SMILES>
CC(C)NC(=O)C(NC(=O)C=C)c1cccnc1

$$$$

  CDD

  0  0  0  0  0  0            999 V2000
M  END
> <Molecule Name>
CVD-0004744

> <SMILES>
CCNC(=O)C(NC(=O)C=C)c1cccnc1

$$$$

  CDD

  0  0  0  0  0  0            999 V2000
M  END
> <Molecule Name>
CVD-0004743

> <SMILES>
Brc1ccc(CNC(=O)C(NC(=O)C=C)c2cccnc2)cc1

$$$$

  CDD

  0  0  0  0  0  0            999 V2000
M  END
> <Molecule Name>
CVD-0004742

> <SMILES>
FC(F)(F)c1ccc(CNC(=O)C(NC(=O)C=C)c2cccnc2)cc1

$$$$

  CDD

  0  0  0  0  0  0            999 V2000
M  END
> <Molecule Name>
CVD-0004741

> <SMILES>
NC(=O)C(NC(=O)C=C)c1cccnc1

$$$$

  CDD

  0  0  0  0  0  0            999 V2000
M  END
> <Molecule Name>
CVD-0004740

> <SMILES>
C=CC(=O)NC(C(=O)NCc1cnco1)c1cccnc1

$$$$

  CDD

  0  0  0  0  0  0            999 V2000
M  END
> <Molecule Name>
CVD-0004739

> <SMILES>
C=CC(=O)NC(C(=O)NCc1cncs1)c1cccnc1

$$$$

  CDD

  0  0  0  0  0  0            999 V2000
M  END
> <Molecule Name>
CVD-0004738

> <SMILES>
C=CC(=O)NC(C(=O)NCc1ccc[nH]1)c1cccnc1

$$$$

  CDD

  0  0  0  0  0  0            999 V2000
M  END
> <Molecule Name>
CVD-0004737

> <SMILES>
C=CC(=O)NC(C(=O)NCC1CCCC1=O)c1cccnc1

$$$$

  CDD

  0  0  0  0  0  0            999 V2000
M  END
> <Molecule Name>
CVD-0004736

> <SMILES>
C=CC(=O)NC(C(=O)NCC1CCCC1)c1cccnc1

$$$$

  CDD

  0  0  0  0  0  0            999 V2000
M  END
> <Molecule Name>
CVD-0004735

> <SMILES>
C=CC(=O)NC(C(=O)NCC1CCCCC1)c1cccnc1

$$$$

  CDD

  0  0  0  0  0  0            999 V2000
M  END
> <Molecule Name>
CVD-0004734

> <SMILES>
C=CC(=O)NC(C(=O)NCc1ccccc1)c1cccnc1

$$$$

  CDD

  0  0  0  0  0  0            999 V2000
M  END
> <Molecule Name>
CVD-0004733

> <SMILES>
ClCC(=O)N1CCN(CC1)S(=O)(=O)c1ccc(s1)-c1ncco1

$$$$

  CDD

  0  0  0  0  0  0            999 V2000
M  END
> <Molecule Name>
CVD-0004732

> <SMILES>
ClCC(=O)N1CCN(CC1)S(=O)(=O)c1ccc(s1)-c1ccc2ncoc2c1

$$$$

  CDD

  0  0  0  0  0  0            999 V2000
M  END
> <Molecule Name>
CVD-0004731

> <SMILES>
Cc1cc(C)cc(c1)-c1ccc(s1)S(=O)(=O)N1CCN(CC1)C(=O)CCl

$$$$

  CDD

  0  0  0  0  0  0            999 V2000
M  END
> <Molecule Name>
CVD-0004730

> <SMILES>
ClCC(=O)N1CCN(CC1)S(=O)(=O)c1ccc(s1)-c1cccnc1

$$$$

  CDD

  0  0  0  0  0  0            999 V2000
M  END
> <Molecule Name>
CVD-0004729

> <SMILES>
ClCC(=O)N1CCN(CC1)S(=O)(=O)c1ccc(s1)-c1ccc[nH]1

$$$$

  CDD

  0  0  0  0  0  0            999 V2000
M  END
> <Molecule Name>
CVD-0004728

> <SMILES>
ClCC(=O)N1CCN(CC1)S(=O)(=O)c1ccc(s1)-c1ccc2cc[nH]c2c1

$$$$

  CDD

  0  0  0  0  0  0            999 V2000
M  END
> <Molecule Name>
CVD-0004727

> <SMILES>
ClCC(=O)N1CCN(CC1)S(=O)(=O)c1ccc(s1)-c1ccccc1Cl

$$$$

  CDD

  0  0  0  0  0  0            999 V2000
M  END
> <Molecule Name>
CVD-0004726

> <SMILES>
ClCC(=O)N1CCN(CC1)S(=O)(=O)c1ccc(s1)-c1ccccc1

$$$$

  CDD

  0  0  0  0  0  0            999 V2000
M  END
> <Molecule Name>
CVD-0004725

> <SMILES>
ClCC(=O)N1CCN(CC1)S(=O)(=O)c1ccc(s1)-c1c[nH]cn1

$$$$

  CDD

  0  0  0  0  0  0            999 V2000
M  END
> <Molecule Name>
CVD-0004724

> <SMILES>
ClCC(=O)N1CCN(CC1)S(=O)(=O)c1ccc(s1)-c1cccc2cc[nH]c12

$$$$

  CDD

  0  0  0  0  0  0            999 V2000
M  END
> <Molecule Name>
CVD-0004723

> <SMILES>
COc1ccc(cc1)-c1ccc(s1)S(=O)(=O)N1CCN(CC1)C(=O)CCl

$$$$

  CDD

  0  0  0  0  0  0            999 V2000
M  END
> <Molecule Name>
CVD-0004722

> <SMILES>
Oc1ccc(cc1)-c1ccc(s1)S(=O)(=O)N1CCN(CC1)C(=O)CCl

$$$$

  CDD

  0  0  0  0  0  0            999 V2000
M  END
> <Molecule Name>
CVD-0004721

> <SMILES>
ClCC(=O)N1CCN(CC1)S(=O)(=O)c1ccc(s1)-c1nccs1

$$$$

  CDD

  0  0  0  0  0  0            999 V2000
M  END
> <Molecule Name>
CVD-0004720

> <SMILES>
ClCC(=O)N1CCN(CC1)S(=O)(=O)c1ccc(s1)-c1cccc2ncoc12

$$$$

  CDD

  0  0  0  0  0  0            999 V2000
M  END
> <Molecule Name>
CVD-0004719

> <SMILES>
Cc1ccc(cc1)-c1ccc(s1)S(=O)(=O)N1CCN(CC1)C(=O)CCl

$$$$

  CDD

  0  0  0  0  0  0            999 V2000
M  END
> <Molecule Name>
CVD-0004718

> <SMILES>
FC(F)(F)c1ccc(cc1)-c1ccc(s1)S(=O)(=O)N1CCN(CC1)C(=O)CCl

$$$$

  CDD

  0  0  0  0  0  0            999 V2000
M  END
> <Molecule Name>
CVD-0004717

> <SMILES>
ClCC(=O)N1CCN(CC1)S(=O)(=O)c1ccc(Br)s1

$$$$

  CDD

  0  0  0  0  0  0            999 V2000
M  END
> <Molecule Name>
CVD-0004716

> <SMILES>
CC(C)(C)c1cc(no1)N(C(C(=O)Nc1ccc2ccccc2c1)c1cccnc1)C(=O)C=C

$$$$

  CDD

  0  0  0  0  0  0            999 V2000
M  END
> <Molecule Name>
CVD-0004715

> <SMILES>
CC(C)(C)c1cc(no1)N(C(C(=O)Nc1ccc(OC(F)(F)F)cc1)c1cccnc1)C(=O)C=C

$$$$

  CDD

  0  0  0  0  0  0            999 V2000
M  END
> <Molecule Name>
CVD-0004714

> <SMILES>
Cc1cccc(Cl)c1NC(=O)C(N(C(=O)C=C)c1cc(on1)C(C)(C)C)c1cccnc1

$$$$

  CDD

  0  0  0  0  0  0            999 V2000
M  END
> <Molecule Name>
CVD-0004713

> <SMILES>
Cc1cccc(C)c1NC(=O)C(N(C(=O)C=C)c1cc(on1)C(C)(C)C)c1cccnc1

$$$$

  CDD

  0  0  0  0  0  0            999 V2000
M  END
> <Molecule Name>
CVD-0004712

> <SMILES>
CC(C)(C)OC(=O)CNC(=O)C(N(C(=O)C=C)c1cc(on1)C(C)(C)C)c1cccnc1

$$$$

  CDD

  0  0  0  0  0  0            999 V2000
M  END
> <Molecule Name>
CVD-0004711

> <SMILES>
CC(C)CCNC(=O)C(N(C(=O)C=C)c1cc(on1)C(C)(C)C)c1cccnc1

$$$$

  CDD

  0  0  0  0  0  0            999 V2000
M  END
> <Molecule Name>
CVD-0004710

> <SMILES>
CC(C)(C)c1cc(no1)N(C(C(=O)NC1CC1)c1cccnc1)C(=O)C=C

$$$$

  CDD

  0  0  0  0  0  0            999 V2000
M  END
> <Molecule Name>
CVD-0004709

> <SMILES>
FC(F)(F)c1ccc(cc1)N(C(C(=O)NCc1ccc(Cl)cc1)c1cccnc1)C(=O)C=C

$$$$

  CDD

  0  0  0  0  0  0            999 V2000
M  END
> <Molecule Name>
CVD-0004708

> <SMILES>
FC(F)(F)c1ccc(cc1)N(C(C(=O)NCc1cccc(Cl)c1)c1cccnc1)C(=O)C=C

$$$$

  CDD

  0  0  0  0  0  0            999 V2000
M  END
> <Molecule Name>
CVD-0004707

> <SMILES>
FC(F)(F)c1ccc(cc1)N(C(C(=O)Nc1ccc2ccccc2c1)c1cccnc1)C(=O)C=C

$$$$

  CDD

  0  0  0  0  0  0            999 V2000
M  END
> <Molecule Name>
CVD-0004706

> <SMILES>
FC(F)(F)Oc1ccc(NC(=O)C(N(C(=O)C=C)c2ccc(cc2)C(F)(F)F)c2cccnc2)cc1

$$$$

  CDD

  0  0  0  0  0  0            999 V2000
M  END
> <Molecule Name>
CVD-0004705

> <SMILES>
CC(C)CCNC(=O)C(N(C(=O)C=C)c1ccc(cc1)C(F)(F)F)c1cccnc1

$$$$

  CDD

  0  0  0  0  0  0            999 V2000
M  END
> <Molecule Name>
CVD-0004704

> <SMILES>
CC(C)(C)OC(=O)CNC(=O)C(N(C(=O)C=C)c1ccc(cc1)C(F)(F)F)c1cccnc1

$$$$

  CDD

  0  0  0  0  0  0            999 V2000
M  END
> <Molecule Name>
CVD-0004703

> <SMILES>
Cc1cccc(C)c1NC(=O)C(N(C(=O)C=C)c1ccc(cc1)C(F)(F)F)c1cccnc1

$$$$

  CDD

  0  0  0  0  0  0            999 V2000
M  END
> <Molecule Name>
CVD-0004702

> <SMILES>
Cc1cccc(Cl)c1NC(=O)C(N(C(=O)C=C)c1ccc(cc1)C(F)(F)F)c1cccnc1

$$$$

  CDD

  0  0  0  0  0  0            999 V2000
M  END
> <Molecule Name>
CVD-0004701

> <SMILES>
FC(F)(F)c1ccc(cc1)N(C(C(=O)NCc1ccccc1)c1cccnc1)C(=O)C=C

$$$$

  CDD

  0  0  0  0  0  0            999 V2000
M  END
> <Molecule Name>
CVD-0004700

> <SMILES>
CCCCNC(=O)C(N(C(=O)C=C)c1cc(on1)C(C)(C)C)c1cccnc1

$$$$

  CDD

  0  0  0  0  0  0            999 V2000
M  END
> <Molecule Name>
CVD-0004699

> <SMILES>
COC(=O)CNC(=O)C(N(C(=O)C=C)c1ccc(cc1)C(F)(F)F)c1cccnc1

$$$$

  CDD

  0  0  0  0  0  0            999 V2000
M  END
> <Molecule Name>
CVD-0004698

> <SMILES>
CCOC(=O)CNC(=O)C(N(C(=O)C=C)c1ccc(cc1)C(F)(F)F)c1cccnc1

$$$$

  CDD

  0  0  0  0  0  0            999 V2000
M  END
> <Molecule Name>
CVD-0004697

> <SMILES>
FC(F)(F)c1ccc(cc1)N(C(C(=O)NC1CC1)c1cccnc1)C(=O)C=C

$$$$

  CDD

  0  0  0  0  0  0            999 V2000
M  END
> <Molecule Name>
CVD-0004696

> <SMILES>
CCCCNC(=O)C(N(C(=O)C=C)c1ccc(cc1)C(F)(F)F)c1cccnc1

$$$$

  CDD

  0  0  0  0  0  0            999 V2000
M  END
> <Molecule Name>
CVD-0004695

> <SMILES>
FC(F)(F)c1ccc(cc1)N(C(C(=O)NC1CCCCC1)c1cccnc1)C(=O)C=C

$$$$

  CDD

  0  0  0  0  0  0            999 V2000
M  END
> <Molecule Name>
CVD-0004694

> <SMILES>
CC(C)(C)c1cc(no1)N(C(C(=O)NCc1cccc(Cl)c1)c1cccnc1)C(=O)C=C

$$$$

  CDD

  0  0  0  0  0  0            999 V2000
M  END
> <Molecule Name>
CVD-0004693

> <SMILES>
CC(C)(C)c1cc(no1)N(C(C(=O)NCc1ccc(Cl)cc1)c1cccnc1)C(=O)C=C

$$$$

  CDD

  0  0  0  0  0  0            999 V2000
M  END
> <Molecule Name>
CVD-0004692

> <SMILES>
CCOC(=O)CNC(=O)C(N(C(=O)C=C)c1cc(on1)C(C)(C)C)c1cccnc1

$$$$

  CDD

  0  0  0  0  0  0            999 V2000
M  END
> <Molecule Name>
CVD-0004691

> <SMILES>
COC(=O)CNC(=O)C(N(C(=O)C=C)c1cc(on1)C(C)(C)C)c1cccnc1

$$$$

  CDD

  0  0  0  0  0  0            999 V2000
M  END
> <Molecule Name>
CVD-0004690

> <SMILES>
CC(C)(C)c1cc(no1)N(C(C(=O)NCc1ccccc1)c1cccnc1)C(=O)C=C

$$$$

  CDD

  0  0  0  0  0  0            999 V2000
M  END
> <Molecule Name>
CVD-0004689

> <SMILES>
CC(C)(C)c1cc(no1)N(C(C(=O)NC1CCCCC1)c1cccnc1)C(=O)C=C

$$$$

  CDD

  0  0  0  0  0  0            999 V2000
M  END
> <Molecule Name>
CVD-0004688

> <SMILES>
COC(=O)c1ccc(cc1)S(N)(=O)=O

$$$$

  CDD

  0  0  0  0  0  0            999 V2000
M  END
> <Molecule Name>
CVD-0004687

> <SMILES>
ClCC(=O)N1CCN(CC1)Oc1ccsc1

$$$$

  CDD

  0  0  0  0  0  0            999 V2000
M  END
> <Molecule Name>
CVD-0004686

> <SMILES>
CCC(=O)N1CCN(Cc2ccsc2)CC1

$$$$

  CDD

  0  0  0  0  0  0            999 V2000
M  END
> <Molecule Name>
CVD-0004685

> <SMILES>
ClC(=O)N1CCN(Cc2ccsc2)CC1

$$$$

  CDD

  0  0  0  0  0  0            999 V2000
M  END
> <Molecule Name>
CVD-0004684

> <SMILES>
CC(=O)N1CCN(CC1)Nc1ccsc1

$$$$

  CDD

  0  0  0  0  0  0            999 V2000
M  END
> <Molecule Name>
CVD-0004683

> <SMILES>
CC(=O)N1CCC(CN1)Oc1ccsc1

$$$$

  CDD

  0  0  0  0  0  0            999 V2000
M  END
> <Molecule Name>
CVD-0004682

> <SMILES>
CCC(=O)N1CCC(Cc2ccsc2)CC1

$$$$

  CDD

  0  0  0  0  0  0            999 V2000
M  END
> <Molecule Name>
CVD-0004681

> <SMILES>
OCC(=O)N1CCC(Cc2ccsc2)CC1

$$$$

  CDD

  0  0  0  0  0  0            999 V2000
M  END
> <Molecule Name>
CVD-0004680

> <SMILES>
OCC(=O)N1CCC(CC1)Nc1ccsc1

$$$$

  CDD

  0  0  0  0  0  0            999 V2000
M  END
> <Molecule Name>
CVD-0004679

> <SMILES>
ClCC(=O)N1CCC(Cc2ccsc2)CC1

$$$$

  CDD

  0  0  0  0  0  0            999 V2000
M  END
> <Molecule Name>
CVD-0004678

> <SMILES>
OCC(=O)N1CCC(CC1)Oc1ccsc1

$$$$

  CDD

  0  0  0  0  0  0            999 V2000
M  END
> <Molecule Name>
CVD-0004677

> <SMILES>
O=CC(=S)N1CCC(CC1)Oc1ccsc1

$$$$

  CDD

  0  0  0  0  0  0            999 V2000
M  END
> <Molecule Name>
CVD-0004676

> <SMILES>
CC(=O)N1CCC(NC1)Oc1ccsc1

$$$$

  CDD

  0  0  0  0  0  0            999 V2000
M  END
> <Molecule Name>
CVD-0004675

> <SMILES>
O=NC(=O)N1CCC(CC1)Oc1ccsc1

$$$$

  CDD

  0  0  0  0  0  0            999 V2000
M  END
> <Molecule Name>
CVD-0004674

> <SMILES>
O=C(N=S)N1CCC(CC1)Oc1ccsc1

$$$$

  CDD

  0  0  0  0  0  0            999 V2000
M  END
> <Molecule Name>
CVD-0004673

> <SMILES>
O=C(C=S)N1CCC(CC1)Oc1ccsc1

$$$$

  CDD

  0  0  0  0  0  0            999 V2000
M  END
> <Molecule Name>
CVD-0004672

> <SMILES>
NC#CC(=O)N1CCC(CC1)Oc1ccsc1

$$$$

  CDD

  0  0  0  0  0  0            999 V2000
M  END
> <Molecule Name>
CVD-0004671

> <SMILES>
N=CC(=O)N1CCC(CC1)Oc1ccsc1

$$$$

  CDD

  0  0  0  0  0  0            999 V2000
M  END
> <Molecule Name>
CVD-0004670

> <SMILES>
C=CC(=O)N1CCC(CC1)Oc1ccsc1

$$$$

  CDD

  0  0  0  0  0  0            999 V2000
M  END
> <Molecule Name>
CVD-0004669

> <SMILES>
NC(=O)N1CCC(CC1)Oc1ccsc1

$$$$

  CDD

  0  0  0  0  0  0            999 V2000
M  END
> <Molecule Name>
CVD-0004668

> <SMILES>
O=C(C#C)N1CCC(CC1)Oc1ccsc1

$$$$

  CDD

  0  0  0  0  0  0            999 V2000
M  END
> <Molecule Name>
CVD-0004667

> <SMILES>
ClC(=O)N1CCC(CC1)Oc1ccsc1

$$$$

  CDD

  0  0  0  0  0  0            999 V2000
M  END
> <Molecule Name>
CVD-0004666

> <SMILES>
ClC(=O)N1CCC(CC1)Nc1ccsc1

$$$$

  CDD

  0  0  0  0  0  0            999 V2000
M  END
> <Molecule Name>
CVD-0004665

> <SMILES>
CC(=O)N1CCC(CC1)Oc1ccsc1

$$$$

  CDD

  0  0  0  0  0  0            999 V2000
M  END
> <Molecule Name>
CVD-0004664

> <SMILES>
CCC(=O)N1CCC(CC1)Nc1ccsc1

$$$$

  CDD

  0  0  0  0  0  0            999 V2000
M  END
> <Molecule Name>
CVD-0004663

> <SMILES>
CCC(=O)N1CCC(CC1)Oc1ccsc1

$$$$

  CDD

  0  0  0  0  0  0            999 V2000
M  END
> <Molecule Name>
CVD-0004662

> <SMILES>
CC(=O)C1CCC(Cc2ccsc2)CC1

$$$$

  CDD

  0  0  0  0  0  0            999 V2000
M  END
> <Molecule Name>
CVD-0004661

> <SMILES>
CC(=O)N1CCC(Cc2ccsc2)CC1

$$$$

  CDD

  0  0  0  0  0  0            999 V2000
M  END
> <Molecule Name>
CVD-0004660

> <SMILES>
CC(=O)C1CCN(Cc2ccsc2)CC1

$$$$

  CDD

  0  0  0  0  0  0            999 V2000
M  END
> <Molecule Name>
CVD-0004659

> <SMILES>
CC(=O)N1CCC(CC1)Nc1ccsc1

$$$$

  CDD

  0  0  0  0  0  0            999 V2000
M  END
> <Molecule Name>
CVD-0004658

> <SMILES>
ClCC(=O)N1CCC(CC1)Nc1ccsc1

$$$$

  CDD

  0  0  0  0  0  0            999 V2000
M  END
> <Molecule Name>
CVD-0004657

> <SMILES>
ClCC(=O)N1CCC(CN1)Oc1ccsc1

$$$$

  CDD

  0  0  0  0  0  0            999 V2000
M  END
> <Molecule Name>
CVD-0004656

> <SMILES>
ClCC(=O)N1CCC(NC1)Oc1ccsc1

$$$$

  CDD

  0  0  0  0  0  0            999 V2000
M  END
> <Molecule Name>
CVD-0004655

> <SMILES>
ClCC(=O)N1CCC(CC1)Oc1ccsc1

$$$$

  CDD

  0  0  0  0  0  0            999 V2000
M  END
> <Molecule Name>
CVD-0004654

> <SMILES>
CC(=O)N1CCN(CC1)Oc1ccsc1

$$$$

  CDD

  0  0  0  0  0  0            999 V2000
M  END
> <Molecule Name>
CVD-0004653

> <SMILES>
Clc1cccc(NC(=O)C(N(C(=O)C=C)c2cccc(Cl)c2)c2cccnc2)c1

$$$$

  CDD

  0  0  0  0  0  0            999 V2000
M  END
> <Molecule Name>
CVD-0004652

> <SMILES>
CC(C)(C)NC(=O)C(N(C(=O)C=C)c1cccc(Cl)c1)c1cccnc1

$$$$

  CDD

  0  0  0  0  0  0            999 V2000
M  END
> <Molecule Name>
CVD-0004651

> <SMILES>
FC(F)(F)c1cc(no1)N(C(C(=O)NC1CCCCC1)c1cccnc1)C(=O)C=C

$$$$

  CDD

  0  0  0  0  0  0            999 V2000
M  END
> <Molecule Name>
CVD-0004650

> <SMILES>
Cc1ccncc1Cn1ccccc1=O

$$$$

  CDD

  0  0  0  0  0  0            999 V2000
M  END
> <Molecule Name>
CVD-0004649

> <SMILES>
C=CC(=O)N1CC[C@@H](C2CCCCC2)C(=O)N1c1cccnc1

$$$$

  CDD

  0  0  0  0  0  0            999 V2000
M  END
> <Molecule Name>
CVD-0004648

> <SMILES>
CC(=O)Nc1ccc(cc1)N([C@@H](C(=O)Nc1cccc(Cl)c1)c1cccnc1)C(=O)C=C

$$$$

  CDD

  0  0  0  0  0  0            999 V2000
M  END
> <Molecule Name>
CVD-0004647

> <SMILES>
CC(=O)Nc1ccc(cc1)N(N(C(=O)Nc1cccc(Cl)c1)c1cccnc1)C(=O)C=C

$$$$

  CDD

  0  0  0  0  0  0            999 V2000
M  END
> <Molecule Name>
CVD-0004646

> <SMILES>
Clc1cccc(NC(=O)C(N2C(=O)C=CC2=O)c2cccnc2)c1

$$$$

  CDD

  0  0  0  0  0  0            999 V2000
M  END
> <Molecule Name>
CVD-0004645

> <SMILES>
Cc1ccncc1N(NC(=O)C=C)C(=O)Cc1cccc(Cl)c1

$$$$

  CDD

  0  0  0  0  0  0            999 V2000
M  END
> <Molecule Name>
CVD-0004644

> <SMILES>
CC(C)C(C(=O)Nc1cnccc1C)c1cccc(Cl)c1

$$$$

  CDD

  0  0  0  0  0  0            999 V2000
M  END
> <Molecule Name>
CVD-0004643

> <SMILES>
CCCC(C(=O)Nc1cnccc1C)c1cccc(Cl)c1

$$$$

  CDD

  0  0  0  0  0  0            999 V2000
M  END
> <Molecule Name>
CVD-0004642

> <SMILES>
CC(C)C(C(=O)Nc1cncnc1C)c1cccc(Cl)c1

$$$$

  CDD

  0  0  0  0  0  0            999 V2000
M  END
> <Molecule Name>
CVD-0004641

> <SMILES>
CC(C)c1ncncc1NC(=O)C(C)c1cccc(Cl)c1

$$$$

  CDD

  0  0  0  0  0  0            999 V2000
M  END
> <Molecule Name>
CVD-0004640

> <SMILES>
C[C@H](C(=O)Nc1cnccc1C)c1cccc(Cl)c1

$$$$

  CDD

  0  0  0  0  0  0            999 V2000
M  END
> <Molecule Name>
CVD-0004639

> <SMILES>
C[C@@H](C(=O)Nc1cnccc1C)c1cccc(Cl)c1

$$$$

  CDD

  0  0  0  0  0  0            999 V2000
M  END
> <Molecule Name>
CVD-0004638

> <SMILES>
CC(C(=O)Nc1cnccc1-n1cccn1)c1cccc(Cl)c1

$$$$

  CDD

  0  0  0  0  0  0            999 V2000
M  END
> <Molecule Name>
CVD-0004637

> <SMILES>
Cc1ccncc1-c1nc(no1)-c1cccc(Cl)c1

$$$$

  CDD

  0  0  0  0  0  0            999 V2000
M  END
> <Molecule Name>
CVD-0004636

> <SMILES>
Cc1ccncc1-c1nnc(o1)-c1cccc(Cl)c1

$$$$

  CDD

  0  0  0  0  0  0            999 V2000
M  END
> <Molecule Name>
CVD-0004635

> <SMILES>
Cc1ccncc1NC(=O)C(F)(F)c1cccc(Cl)c1

$$$$

  CDD

  0  0  0  0  0  0            999 V2000
M  END
> <Molecule Name>
CVD-0004634

> <SMILES>
Cc1ccncc1NC(=O)C(C)(C)c1cccc(Cl)c1

$$$$

  CDD

  0  0  0  0  0  0            999 V2000
M  END
> <Molecule Name>
CVD-0004633

> <SMILES>
Cc1ccncc1NS(=O)(=O)c1cccc(Cl)c1

$$$$

  CDD

  0  0  0  0  0  0            999 V2000
M  END
> <Molecule Name>
CVD-0004632

> <SMILES>
Cc1ccncc1NC(=O)C1(CC1)c1cccc(Cl)c1

$$$$

  CDD

  0  0  0  0  0  0            999 V2000
M  END
> <Molecule Name>
CVD-0004631

> <SMILES>
CC(C(=O)Nc1cnccc1NC(C)=O)c1cccc(Cl)c1

$$$$

  CDD

  0  0  0  0  0  0            999 V2000
M  END
> <Molecule Name>
CVD-0004630

> <SMILES>
Clc1cccc(c1)N1C(=O)NC(C1=O)c1cccnc1

$$$$

  CDD

  0  0  0  0  0  0            999 V2000
M  END
> <Molecule Name>
CVD-0004629

> <SMILES>
Cc1ccncc1NS(=O)(=O)Cc1cccc(Cl)c1

$$$$

  CDD

  0  0  0  0  0  0            999 V2000
M  END
> <Molecule Name>
CVD-0004628

> <SMILES>
CCCN(C(=O)Cc1cccc(Cl)c1)c1cccnc1

$$$$

  CDD

  0  0  0  0  0  0            999 V2000
M  END
> <Molecule Name>
CVD-0004627

> <SMILES>
CN(C(=O)Cc1cccc(Cl)c1)c1cnccc1C

$$$$

  CDD

  0  0  0  0  0  0            999 V2000
M  END
> <Molecule Name>
CVD-0004626

> <SMILES>
Cc1ccncc1NC(=O)Cc1cccc(I)c1

$$$$

  CDD

  0  0  0  0  0  0            999 V2000
M  END
> <Molecule Name>
CVD-0004625

> <SMILES>
Cc1ccncc1NC(=O)Cc1cccc(Br)c1

$$$$

  CDD

  0  0  0  0  0  0            999 V2000
M  END
> <Molecule Name>
CVD-0004624

> <SMILES>
Cc1ccc(CC(=O)Nc2cnccc2C)cc1

$$$$

  CDD

  0  0  0  0  0  0            999 V2000
M  END
> <Molecule Name>
CVD-0004623

> <SMILES>
CN(C)C(C(=O)Nc1cnccc1C)c1cccc(Cl)c1

$$$$

  CDD

  0  0  0  0  0  0            999 V2000
M  END
> <Molecule Name>
CVD-0004622

> <SMILES>
CCC(C(=O)Nc1cnncc1C)c1cccc(Cl)c1

$$$$

  CDD

  0  0  0  0  0  0            999 V2000
M  END
> <Molecule Name>
CVD-0004621

> <SMILES>
COc1cccc(c1)N(C(C(=O)NC1CCCCC1)c1cccnc1)C(=O)CCl

$$$$

  CDD

  0  0  0  0  0  0            999 V2000
M  END
> <Molecule Name>
CVD-0004620

> <SMILES>
ClCC(=O)N(C(C(=O)NCCc1ccccc1)c1cccnc1)c1ccccc1Cl

$$$$

  CDD

  0  0  0  0  0  0            999 V2000
M  END
> <Molecule Name>
CVD-0004619

> <SMILES>
COc1ccc(cc1Cl)N(C(C(=O)NC1CCCCC1)c1cccnc1)C(=O)CCl

$$$$

  CDD

  0  0  0  0  0  0            999 V2000
M  END
> <Molecule Name>
CVD-0004618

> <SMILES>
Clc1cccc(CC(=O)Nc2cncnc2)c1

$$$$

  CDD

  0  0  0  0  0  0            999 V2000
M  END
> <Molecule Name>
CVD-0004617

> <SMILES>
Clc1cccc(CC(=O)Nc2cnccn2)c1

$$$$

  CDD

  0  0  0  0  0  0            999 V2000
M  END
> <Molecule Name>
CVD-0004616

> <SMILES>
Clc1cccc(CC(=O)Nc2nncs2)c1

$$$$

  CDD

  0  0  0  0  0  0            999 V2000
M  END
> <Molecule Name>
CVD-0004615

> <SMILES>
Clc1cccc(CC(=O)Nc2cnns2)c1

$$$$

  CDD

  0  0  0  0  0  0            999 V2000
M  END
> <Molecule Name>
CVD-0004614

> <SMILES>
Clc1cccc(CC(=O)Nn2cnnc2)c1

$$$$

  CDD

  0  0  0  0  0  0            999 V2000
M  END
> <Molecule Name>
CVD-0004613

> <SMILES>
Clc1cccc(CC(=O)Nn2cn[nH]c2=O)c1

$$$$

  CDD

  0  0  0  0  0  0            999 V2000
M  END
> <Molecule Name>
CVD-0004612

> <SMILES>
Clc1cccc(CC(=O)Nn2cnc3ccccc3c2=O)c1

$$$$

  CDD

  0  0  0  0  0  0            999 V2000
M  END
> <Molecule Name>
CVD-0004611

> <SMILES>
Clc1cccc(CC(=O)Nn2cnc3ccccc23)c1

$$$$

  CDD

  0  0  0  0  0  0            999 V2000
M  END
> <Molecule Name>
CVD-0004610

> <SMILES>
Clc1cccc(CC(=O)Nc2nnn[nH]2)c1

$$$$

  CDD

  0  0  0  0  0  0            999 V2000
M  END
> <Molecule Name>
CVD-0004609

> <SMILES>
Clc1cccc(CC(=O)Nc2cncc(Cl)c2Cl)c1

$$$$

  CDD

  0  0  0  0  0  0            999 V2000
M  END
> <Molecule Name>
CVD-0004608

> <SMILES>
Cc1nnn(NC(=O)Cc2cccc(Cl)c2)c1C

$$$$

  CDD

  0  0  0  0  0  0            999 V2000
M  END
> <Molecule Name>
CVD-0004607

> <SMILES>
O=C(Nc1cncc(c1)C#N)[C@]1(CO1)c1cccnc1

$$$$

  CDD

  0  0  0  0  0  0            999 V2000
M  END
> <Molecule Name>
CVD-0004606

> <SMILES>
Oc1ccc(cc1NC(=O)Cc1cccnc1)C#N

$$$$

  CDD

  0  0  0  0  0  0            999 V2000
M  END
> <Molecule Name>
CVD-0004605

> <SMILES>
Oc1ncc(cc1NC(=O)Cc1cccnc1)C#N

$$$$

  CDD

  0  0  0  0  0  0            999 V2000
M  END
> <Molecule Name>
CVD-0004604

> <SMILES>
O=C(Cc1cncc2ccncc12)Nc1cncc(c1)C#N

$$$$

  CDD

  0  0  0  0  0  0            999 V2000
M  END
> <Molecule Name>
CVD-0004603

> <SMILES>
O=C(Cc1cncc2cnccc12)Nc1cncc(c1)C#N

$$$$

  CDD

  0  0  0  0  0  0            999 V2000
M  END
> <Molecule Name>
CVD-0004602

> <SMILES>
O=C(Cn1c2ccccc2[nH]c1=O)Nc1cncc(c1)C#N

$$$$

  CDD

  0  0  0  0  0  0            999 V2000
M  END
> <Molecule Name>
CVD-0004601

> <SMILES>
O=C(Cn1cnc2ccccc12)Nc1cncc(c1)C#N

$$$$

  CDD

  0  0  0  0  0  0            999 V2000
M  END
> <Molecule Name>
CVD-0004600

> <SMILES>
O=C(Cc1cnccn1)Nc1cncc(c1)C#N

$$$$

  CDD

  0  0  0  0  0  0            999 V2000
M  END
> <Molecule Name>
CVD-0004599

> <SMILES>
Clc1cccc(NC(=O)C(=C)c2cccnc2)c1

$$$$

  CDD

  0  0  0  0  0  0            999 V2000
M  END
> <Molecule Name>
CVD-0004598

> <SMILES>
O=C(Cn1nnc2ccccc12)Nc1cncc(c1)C#N

$$$$

  CDD

  0  0  0  0  0  0            999 V2000
M  END
> <Molecule Name>
CVD-0004597

> <SMILES>
Clc1cccc(NC(=O)[C@]2(CO2)c2cccnc2)c1

$$$$

  CDD

  0  0  0  0  0  0            999 V2000
M  END
> <Molecule Name>
CVD-0004596

> <SMILES>
Oc1ccc(Cl)cc1NC(=O)Cc1cccnc1

$$$$

  CDD

  0  0  0  0  0  0            999 V2000
M  END
> <Molecule Name>
CVD-0004595

> <SMILES>
Oc1ncc(Cl)cc1NC(=O)Cc1cccnc1

$$$$

  CDD

  0  0  0  0  0  0            999 V2000
M  END
> <Molecule Name>
CVD-0004594

> <SMILES>
Clc1cccc(NC(=O)Cc2cncc3ccncc23)c1

$$$$

  CDD

  0  0  0  0  0  0            999 V2000
M  END
> <Molecule Name>
CVD-0004593

> <SMILES>
Clc1cccc(NC(=O)Cc2cncc3cnccc23)c1

$$$$

  CDD

  0  0  0  0  0  0            999 V2000
M  END
> <Molecule Name>
CVD-0004592

> <SMILES>
Clc1cccc(NC(=O)Cn2c3ccccc3[nH]c2=O)c1

$$$$

  CDD

  0  0  0  0  0  0            999 V2000
M  END
> <Molecule Name>
CVD-0004591

> <SMILES>
Clc1cccc(NC(=O)Cn2cnc3ccccc23)c1

$$$$

  CDD

  0  0  0  0  0  0            999 V2000
M  END
> <Molecule Name>
CVD-0004590

> <SMILES>
Clc1cccc(NC(=O)Cn2nnc3ccccc23)c1

$$$$

  CDD

  0  0  0  0  0  0            999 V2000
M  END
> <Molecule Name>
CVD-0004589

> <SMILES>
Clc1cccc(NC(=O)Cn2ncc3ccccc23)c1

$$$$

  CDD

  0  0  0  0  0  0            999 V2000
M  END
> <Molecule Name>
CVD-0004588

> <SMILES>
C=C(C(=O)Nc1cncc(c1)C#N)c1cccnc1

$$$$

  CDD

  0  0  0  0  0  0            999 V2000
M  END
> <Molecule Name>
CVD-0004587

> <SMILES>
O=C(Cn1ncc2ccccc12)Nc1cncc(c1)C#N

$$$$

  CDD

  0  0  0  0  0  0            999 V2000
M  END
> <Molecule Name>
CVD-0004586

> <SMILES>
Cc1ccncc1N(C[C@]1(C)C[C@@]1(C)N)C(=O)Cc1cccc(Cl)c1

$$$$

  CDD

  0  0  0  0  0  0            999 V2000
M  END
> <Molecule Name>
CVD-0004585

> <SMILES>
Cc1ccncc1N(C(=O)Cc1cccc(Cl)c1)c1ocnc1CO

$$$$

  CDD

  0  0  0  0  0  0            999 V2000
M  END
> <Molecule Name>
CVD-0004584

> <SMILES>
Cc1ccncc1N(CNc1ncco1)C(=O)Cc1cccc(Cl)c1

$$$$

  CDD

  0  0  0  0  0  0            999 V2000
M  END
> <Molecule Name>
CVD-0004583

> <SMILES>
Cc1ccncc1N(C[C@H](N)C(C)(C)O)C(=O)Cc1cccc(Cl)c1

$$$$

  CDD

  0  0  0  0  0  0            999 V2000
M  END
> <Molecule Name>
CVD-0004582

> <SMILES>
COc1c[nH]nc1N(C(=O)Cc1cccc(Cl)c1)c1cnccc1C

$$$$

  CDD

  0  0  0  0  0  0            999 V2000
M  END
> <Molecule Name>
CVD-0004581

> <SMILES>
Cc1ccncc1N(C(=O)Cc1cccc(Cl)c1)c1cccc(N)n1

$$$$

  CDD

  0  0  0  0  0  0            999 V2000
M  END
> <Molecule Name>
CVD-0004580

> <SMILES>
CC[C@@H](O)CN(C(=O)Cc1cccc(Cl)c1)c1cnccc1C

$$$$

  CDD

  0  0  0  0  0  0            999 V2000
M  END
> <Molecule Name>
CVD-0004579

> <SMILES>
Cc1ccncc1N(C(=O)Cc1cccc(Cl)c1)n1cnc(O)c1

$$$$

  CDD

  0  0  0  0  0  0            999 V2000
M  END
> <Molecule Name>
CVD-0004578

> <SMILES>
Cc1ccncc1N(C[C@@H](O)CN)C(=O)Cc1cccc(Cl)c1

$$$$

  CDD

  0  0  0  0  0  0            999 V2000
M  END
> <Molecule Name>
CVD-0004577

> <SMILES>
Cc1ccncc1N(CCn1cccn1)C(=O)Cc1cccc(Cl)c1

$$$$

  CDD

  0  0  0  0  0  0            999 V2000
M  END
> <Molecule Name>
CVD-0004576

> <SMILES>
Cc1ccncc1N(CC1(COC1)C#N)C(=O)Cc1cccc(Cl)c1

$$$$

  CDD

  0  0  0  0  0  0            999 V2000
M  END
> <Molecule Name>
CVD-0004575

> <SMILES>
Cc1ccncc1N(CNc1ccon1)C(=O)Cc1cccc(Cl)c1

$$$$

  CDD

  0  0  0  0  0  0            999 V2000
M  END
> <Molecule Name>
CVD-0004574

> <SMILES>
Cc1ccncc1N(C[C@]1(O)CCOC1)C(=O)Cc1cccc(Cl)c1

$$$$

  CDD

  0  0  0  0  0  0            999 V2000
M  END
> <Molecule Name>
CVD-0004573

> <SMILES>
Cc1ccncc1N(CC[C@@H](N)CO)C(=O)Cc1cccc(Cl)c1

$$$$

  CDD

  0  0  0  0  0  0            999 V2000
M  END
> <Molecule Name>
CVD-0004572

> <SMILES>
Cc1ccncc1N(CC1(O)CC1)C(=O)Cc1cccc(Cl)c1

$$$$

  CDD

  0  0  0  0  0  0            999 V2000
M  END
> <Molecule Name>
CVD-0004571

> <SMILES>
Cc1cccc(CC(=O)Nc2cnccc2C#N)c1

$$$$

  CDD

  0  0  0  0  0  0            999 V2000
M  END
> <Molecule Name>
CVD-0004570

> <SMILES>
Clc1cccc(CC(=O)Nc2cnccc2Cl)c1

$$$$

  CDD

  0  0  0  0  0  0            999 V2000
M  END
> <Molecule Name>
CVD-0004569

> <SMILES>
NS(=O)(=O)c1ccncc1NC(=O)Cc1cccc(Cl)c1

$$$$

  CDD

  0  0  0  0  0  0            999 V2000
M  END
> <Molecule Name>
CVD-0004568

> <SMILES>
Oc1ccncc1NC(=O)Cc1cccc(Cl)c1

$$$$

  CDD

  0  0  0  0  0  0            999 V2000
M  END
> <Molecule Name>
CVD-0004567

> <SMILES>
Clc1cccc(CC(=O)Nc2cnccc2C2CC2)c1

$$$$

  CDD

  0  0  0  0  0  0            999 V2000
M  END
> <Molecule Name>
CVD-0004566

> <SMILES>
Cc1ccncc1NC(=O)Cc1cccc(c1)C1CC1

$$$$

  CDD

  0  0  0  0  0  0            999 V2000
M  END
> <Molecule Name>
CVD-0004565

> <SMILES>
Cc1ccncc1NC(=O)Cc1cccc(c1)C(F)(F)F

$$$$

  CDD

  0  0  0  0  0  0            999 V2000
M  END
> <Molecule Name>
CVD-0004564

> <SMILES>
Cc1ccncc1NC(=O)Cc1cccc(O)c1

$$$$

  CDD

  0  0  0  0  0  0            999 V2000
M  END
> <Molecule Name>
CVD-0004563

> <SMILES>
COc1cccc(CC(Nc2cnccc2C)C(F)(F)F)c1

$$$$

  CDD

  0  0  0  0  0  0            999 V2000
M  END
> <Molecule Name>
CVD-0004562

> <SMILES>
Cc1ccncc1-c1nnc(Cc2cccc(F)c2)o1

$$$$

  CDD

  0  0  0  0  0  0            999 V2000
M  END
> <Molecule Name>
CVD-0004561

> <SMILES>
Cc1ccncc1-c1nnc(Cc2cccc(c2)C#N)o1

$$$$

  CDD

  0  0  0  0  0  0            999 V2000
M  END
> <Molecule Name>
CVD-0004560

> <SMILES>
Cc1ccncc1-n1cc(Cc2cccc(c2)C#N)nn1

$$$$

  CDD

  0  0  0  0  0  0            999 V2000
M  END
> <Molecule Name>
CVD-0004559

> <SMILES>
Cc1ccncc1-n1cc(Cc2cccc(Cl)c2)nn1

$$$$

  CDD

  0  0  0  0  0  0            999 V2000
M  END
> <Molecule Name>
CVD-0004558

> <SMILES>
CNc1cccc(CC(=O)Nc2cnccc2C2CC2)c1

$$$$

  CDD

  0  0  0  0  0  0            999 V2000
M  END
> <Molecule Name>
CVD-0004557

> <SMILES>
Cc1ccncc1NC(=O)Cc1cccc(F)c1

$$$$

  CDD

  0  0  0  0  0  0            999 V2000
M  END
> <Molecule Name>
CVD-0004556

> <SMILES>
N#Cc1ncccn1

$$$$

  CDD

  0  0  0  0  0  0            999 V2000
M  END
> <Molecule Name>
CVD-0004555

> <SMILES>
N#Cc1ncc[nH]1

$$$$

  CDD

  0  0  0  0  0  0            999 V2000
M  END
> <Molecule Name>
CVD-0004554

> <SMILES>
COc1ccc2nc(C)cc(C(=O)NN)c2c1

$$$$

  CDD

  0  0  0  0  0  0            999 V2000
M  END
> <Molecule Name>
CVD-0004553

> <SMILES>
Clc1cc(CN2CCN(CC2)C(=O)C=C)c2ccccc2c1

$$$$

  CDD

  0  0  0  0  0  0            999 V2000
M  END
> <Molecule Name>
CVD-0004552

> <SMILES>
Clc1cc(CN2CCN(CC#N)CC2)c2ccccc2c1

$$$$

  CDD

  0  0  0  0  0  0            999 V2000
M  END
> <Molecule Name>
CVD-0004551

> <SMILES>
ClCC(=O)N1CCC(CC1)C(=O)Nc1ccc2c(c1)[nH]c1ccccc21

$$$$

  CDD

  0  0  0  0  0  0            999 V2000
M  END
> <Molecule Name>
CVD-0004550

> <SMILES>
CCCc1n[nH]c(n1)C1CN(CCO1)C(=O)C1CCN(CC1)C(=O)CCl

$$$$

  CDD

  0  0  0  0  0  0            999 V2000
M  END
> <Molecule Name>
CVD-0004549

> <SMILES>
Cc1n[nH]c(n1)-c1ccc(C)c(NC(=O)C2CCN(CC2)C(=O)CCl)c1

$$$$

  CDD

  0  0  0  0  0  0            999 V2000
M  END
> <Molecule Name>
CVD-0004548

> <SMILES>
ClCC(=O)N1CCC(CC1)C(=O)Nc1cccc(c1)C1=NN=C2CCCCC12

$$$$

  CDD

  0  0  0  0  0  0            999 V2000
M  END
> <Molecule Name>
CVD-0004547

> <SMILES>
CN(C(=O)C1CCN(CC1)C(=O)CCl)c1ccccc1

$$$$

  CDD

  0  0  0  0  0  0            999 V2000
M  END
> <Molecule Name>
CVD-0004546

> <SMILES>
ClCC(=O)N1CCC(CC1)C(=O)Nc1ccc(cc1)N1CCNC1=O

$$$$

  CDD

  0  0  0  0  0  0            999 V2000
M  END
> <Molecule Name>
CVD-0004545

> <SMILES>
COc1cc(NC(=O)C2CCN(CC2)C(=O)CCl)cc(OC)c1OC

$$$$

  CDD

  0  0  0  0  0  0            999 V2000
M  END
> <Molecule Name>
CVD-0004544

> <SMILES>
Cc1cccnc1NC(=O)C1CCN(CC1)C(=O)CCl

$$$$

  CDD

  0  0  0  0  0  0            999 V2000
M  END
> <Molecule Name>
CVD-0004543

> <SMILES>
ClCC(=O)N1CCC(CC1)C(=O)Nc1ccc(Cl)cc1

$$$$

  CDD

  0  0  0  0  0  0            999 V2000
M  END
> <Molecule Name>
CVD-0004542

> <SMILES>
ClCC(=O)N1CCC(CC1)C(=O)Nc1cccc(c1)-c1cc[nH]n1

$$$$

  CDD

  0  0  0  0  0  0            999 V2000
M  END
> <Molecule Name>
CVD-0004541

> <SMILES>
CC(=O)c1cccc(NC(=O)C2CCN(CC2)C(=O)CCl)c1

$$$$

  CDD

  0  0  0  0  0  0            999 V2000
M  END
> <Molecule Name>
CVD-0004540

> <SMILES>
ClCC(=O)N1CCC(CC1)C(=O)Nc1c[nH]c2ccc(Br)cc12

$$$$

  CDD

  0  0  0  0  0  0            999 V2000
M  END
> <Molecule Name>
CVD-0004539

> <SMILES>
ClCC(=O)N1CCC(CC1)C(=O)Nc1ccccc1Br

$$$$

  CDD

  0  0  0  0  0  0            999 V2000
M  END
> <Molecule Name>
CVD-0004538

> <SMILES>
ClCC(=O)N1CCC(CC1)C(=O)Nc1ccccc1

$$$$

  CDD

  0  0  0  0  0  0            999 V2000
M  END
> <Molecule Name>
CVD-0004537

> <SMILES>
ClCC(=O)N1CCC(CC1)C(=O)Nc1cc(Cl)nc2ccccc12

$$$$

  CDD

  0  0  0  0  0  0            999 V2000
M  END
> <Molecule Name>
CVD-0004536

> <SMILES>
Cc1ccnc(NC(=O)C2CCN(CC2)C(=O)CCl)c1

$$$$

  CDD

  0  0  0  0  0  0            999 V2000
M  END
> <Molecule Name>
CVD-0004535

> <SMILES>
ClCC(=O)N1CCC(CC1)C(=O)Nc1ccn(n1)-c1ccccc1

$$$$

  CDD

  0  0  0  0  0  0            999 V2000
M  END
> <Molecule Name>
CVD-0004534

> <SMILES>
ClCC(=O)N1CCC(CC1)C(=O)Nc1cccnc1

$$$$

  CDD

  0  0  0  0  0  0            999 V2000
M  END
> <Molecule Name>
CVD-0004533

> <SMILES>
CC(=O)c1ccc(NC(=O)C2CCN(CC2)C(=O)CCl)cc1

$$$$

  CDD

  0  0  0  0  0  0            999 V2000
M  END
> <Molecule Name>
CVD-0004532

> <SMILES>
Cn1c(Cn2c(cc3CCC=Cc23)-c2nc3=C(N)CN=c3c(=O)n2C)nc2C=CNCc2c1=O

$$$$

  CDD

  0  0  0  0  0  0            999 V2000
M  END
> <Molecule Name>
CVD-0004531

> <SMILES>
CC(C)n1nc2OCCOc2c1NC(=O)Nn1c2C(S)C=C(C)c2n(C2=C(S)C(S)=CC2)c1=O

$$$$

  CDD

  0  0  0  0  0  0            999 V2000
M  END
> <Molecule Name>
CVD-0004530

> <SMILES>
CCC[C@@H](CC)N(CCC(C)C)C(=O)NOC1=C(C)CC(C)=C1NC(=O)[C@H]1OC(=O)CC=C1

$$$$

  CDD

  0  0  0  0  0  0            999 V2000
M  END
> <Molecule Name>
CVD-0004529

> <SMILES>
CCN1C(=O)N[C@@](C)(C1=O)n1[nH]cc1CN1C(=O)[C@](NC(C)=O)(C2CC=CC=C2)C2=C1C(C)=C(C)C2

$$$$

  CDD

  0  0  0  0  0  0            999 V2000
M  END
> <Molecule Name>
CVD-0004528

> <SMILES>
CN1C(C=c2nc(oc2=C1C1=CC=CC1)[C@@H]1C=CC=CN1C(=O)C1=CCC(=O)N1)C1=CC=CC1

$$$$

  CDD

  0  0  0  0  0  0            999 V2000
M  END
> <Molecule Name>
CVD-0004527

> <SMILES>
CCC1=C([C@H]2O[C@H]([C@H](C)[C@@H]2C)n2c(=S)[nH]c3=C(CNN=c23)OC)C(=O)N2CC(OC)=CC(C)=C12

$$$$

  CDD

  0  0  0  0  0  0            999 V2000
M  END
> <Molecule Name>
CVD-0004526

> <SMILES>
CCCCc1cc(C)cc(C(=O)OC2=C(C)CC=C2C)c1NC(=O)c1nc(F)c2n1[nH]c(N)nc2=N

$$$$

  CDD

  0  0  0  0  0  0            999 V2000
M  END
> <Molecule Name>
CVD-0004525

> <SMILES>
CC1=CCC(C2CCC2)=C1c1nnc([C@H]2COc3[nH]ccc3O2)n1Nc1nnc(o1)C1CCC1

$$$$

  CDD

  0  0  0  0  0  0            999 V2000
M  END
> <Molecule Name>
CVD-0004524

> <SMILES>
COC1=C2C(C[C@H](OC2=O)C(=O)N2C(C)=C[C@@H](C3=C(O)CC=C3OC)C3=C2CCC=C3)=CC1

$$$$

  CDD

  0  0  0  0  0  0            999 V2000
M  END
> <Molecule Name>
CVD-0004523

> <SMILES>
CCC1C=C(OC([C@H]2COC3C(=O)C=C(C)N=C3O2)=C1C=C)C(=O)NC1=C(C)C=CC1C=C

$$$$

  CDD

  0  0  0  0  0  0            999 V2000
M  END
> <Molecule Name>
CVD-0004522

> <SMILES>
CC[C@]1(Nn2c(=O)nn[nH]c2=O)N=CCN(C1=O)n1c2c(Cl)ccc(C)c2n(CN2N=CCC2=O)c1=O

$$$$

  CDD

  0  0  0  0  0  0            999 V2000
M  END
> <Molecule Name>
CVD-0004521

> <SMILES>
CCC1=NN(C)CC2=C1N(Cc1c[nH]n1[C@@]1(C)NC(=O)N(C)C1=O)C(=O)[C@]2(NC(C)=O)C1=CCC=C1

$$$$

  CDD

  0  0  0  0  0  0            999 V2000
M  END
> <Molecule Name>
CVD-0004520

> <SMILES>
CC(C)CN(CC1=CCCC1)C(=O)NOc1ncccc1NC(=O)[C@H]1OC(=O)NN=C1

$$$$

  CDD

  0  0  0  0  0  0            999 V2000
M  END
> <Molecule Name>
CVD-0004519

> <SMILES>
CCCN(N(CC)C(=O)[C@H]1O[C@H]([C@H](C)[C@@H]1C(C)C)N1C=CNc2c1nc[nH]c2=O)C(C)=O

$$$$

  CDD

  0  0  0  0  0  0            999 V2000
M  END
> <Molecule Name>
CVD-0004518

> <SMILES>
CCN1C(=O)N[C@@](C)(C1=O)n1[nH]cc1CN1C(=O)[C@](NC(C)=O)(C2=C(CC=C2)C(C)=O)C2=C1C(C)C(C)=C2

$$$$

  CDD

  0  0  0  0  0  0            999 V2000
M  END
> <Molecule Name>
CVD-0004517

> <SMILES>
NC1=CC[C@H]2OC3(O[C@H]12)C(=O)N(C(=O)N[C@H]1C(OC=C)=C(O)c2ccnn12)c1ccccc31

$$$$

  CDD

  0  0  0  0  0  0            999 V2000
M  END
> <Molecule Name>
CVD-0004516

> <SMILES>
CC(=O)CCC(=O)n1c(=O)n(NC(=O)CN2C=SC=NC2(C)C(C)=O)c2=CCCC=c12

$$$$

  CDD

  0  0  0  0  0  0            999 V2000
M  END
> <Molecule Name>
CVD-0004515

> <SMILES>
CCO[C@@H](NC(=O)N1C(=O)C2(O[C@@H]3C=CC=C[C@H]3O2)C2=CCC(CC)=C12)C(=O)c1n[nH][nH]1

$$$$

  CDD

  0  0  0  0  0  0            999 V2000
M  END
> <Molecule Name>
CVD-0004514

> <SMILES>
CCc1ccc(-c2nc(-c3nnc4n(OC)c5c[nH]nc5n34)n3nc(C)cc(C)c23)c(=O)n1C(C)[C@H](C)C1NCC=C1

$$$$

  CDD

  0  0  0  0  0  0            999 V2000
M  END
> <Molecule Name>
CVD-0004513

> <SMILES>
CCN1CCN(CC1)C(=O)Nc1cc(ccn1)-c1cn(C2CCOCC2)c2ccccc12

$$$$

  CDD

  0  0  0  0  0  0            999 V2000
M  END
> <Molecule Name>
CVD-0004512

> <SMILES>
CN(Cc1cc(C)on1)C(=O)NC1CC1

$$$$

  CDD

  0  0  0  0  0  0            999 V2000
M  END
> <Molecule Name>
CVD-0004511

> <SMILES>
Cc1nnc(CN2CCC=C(F)C2)s1

$$$$

  CDD

  0  0  0  0  0  0            999 V2000
M  END
> <Molecule Name>
CVD-0004510

> <SMILES>
OC1CCN(Cc2ccsc2)CC1

$$$$

  CDD

  0  0  0  0  0  0            999 V2000
M  END
> <Molecule Name>
CVD-0004509

> <SMILES>
CN1CCN(CC1)C(=O)COc1ccc(C)cc1

$$$$

  CDD

  0  0  0  0  0  0            999 V2000
M  END
> <Molecule Name>
CVD-0004508

> <SMILES>
CCNc1ccc(cn1)C#N

$$$$

  CDD

  0  0  0  0  0  0            999 V2000
M  END
> <Molecule Name>
CVD-0004507

> <SMILES>
ClCC(=O)N1CCN(CC1)S(=O)(=O)c1ccc(Cl)cc1

$$$$

  CDD

  0  0  0  0  0  0            999 V2000
M  END
> <Molecule Name>
CVD-0004506

> <SMILES>
CC(=O)NC(CC(N)=O)C(=O)NCC#CBr

$$$$

  CDD

  0  0  0  0  0  0            999 V2000
M  END
> <Molecule Name>
CVD-0004505

> <SMILES>
C[C@H](O)[C@H](NC(C)=O)C(=O)NCC#CBr

$$$$

  CDD

  0  0  0  0  0  0            999 V2000
M  END
> <Molecule Name>
CVD-0004504

> <SMILES>
Cc1ccccc1CN1CCCN(CC1)C(=O)CCl

$$$$

  CDD

  0  0  0  0  0  0            999 V2000
M  END
> <Molecule Name>
CVD-0004503

> <SMILES>
CN1CCCc2ccc(cc12)S(N)(=O)=O

$$$$

  CDD

  0  0  0  0  0  0            999 V2000
M  END
> <Molecule Name>
CVD-0004502

> <SMILES>
CC(NC(=O)CCl)c1cccc2ccccc12

$$$$

  CDD

  0  0  0  0  0  0            999 V2000
M  END
> <Molecule Name>
CVD-0004501

> <SMILES>
ClCC(=O)Nc1cccc(c1)C(=O)N1CCSCC1

$$$$

  CDD

  0  0  0  0  0  0            999 V2000
M  END
> <Molecule Name>
CVD-0004500

> <SMILES>
ClCC(=O)N1CCN(CC1)S(=O)(=O)c1ccccc1C#N

$$$$

  CDD

  0  0  0  0  0  0            999 V2000
M  END
> <Molecule Name>
CVD-0004499

> <SMILES>
Cc1ccc(c(C)c1)S(=O)(=O)N1CCN(CC1)C(=O)CCl

$$$$

  CDD

  0  0  0  0  0  0            999 V2000
M  END
> <Molecule Name>
CVD-0004498

> <SMILES>
Fc1ccccc1S(=O)(=O)N1CCN(CC1)C(=O)CCl

$$$$

  CDD

  0  0  0  0  0  0            999 V2000
M  END
> <Molecule Name>
CVD-0004497

> <SMILES>
Fc1ccc(cc1)C1CN(CCO1)C(=O)CCl

$$$$

  CDD

  0  0  0  0  0  0            999 V2000
M  END
> <Molecule Name>
CVD-0004496

> <SMILES>
ClCC(=O)NCc1ccc2OCOc2c1

$$$$

  CDD

  0  0  0  0  0  0            999 V2000
M  END
> <Molecule Name>
CVD-0004495

> <SMILES>
ClCC(=O)N1CCCC(C1)c1nc2ccccc2s1

$$$$

  CDD

  0  0  0  0  0  0            999 V2000
M  END
> <Molecule Name>
CVD-0004494

> <SMILES>
ClCC(=O)N1CCN(CC1)C(=O)c1ccco1

$$$$

  CDD

  0  0  0  0  0  0            999 V2000
M  END
> <Molecule Name>
CVD-0004493

> <SMILES>
[O-][N+](=O)c1ccccc1N1CCN(CC1)C(=O)CCl

$$$$

  CDD

  0  0  0  0  0  0            999 V2000
M  END
> <Molecule Name>
CVD-0004492

> <SMILES>
Cc1ccc(cc1)S(=O)(=O)N1CCN(CC1)C(=O)CCl

$$$$

  CDD

  0  0  0  0  0  0            999 V2000
M  END
> <Molecule Name>
CVD-0004491

> <SMILES>
ClCC(=O)NNC(=O)c1cc2CCCCc2s1

$$$$

  CDD

  0  0  0  0  0  0            999 V2000
M  END
> <Molecule Name>
CVD-0004490

> <SMILES>
Cc1ccc(cc1)C(=O)N1CCN(CC1)C(=O)CCl

$$$$

  CDD

  0  0  0  0  0  0            999 V2000
M  END
> <Molecule Name>
CVD-0004489

> <SMILES>
Cc1cccc(CN2CCN(CC2)C(=O)CCl)c1

$$$$

  CDD

  0  0  0  0  0  0            999 V2000
M  END
> <Molecule Name>
CVD-0004488

> <SMILES>
O=C(NCc1ccc(cc1)C#N)N1CCOCC1

$$$$

  CDD

  0  0  0  0  0  0            999 V2000
M  END
> <Molecule Name>
CVD-0004487

> <SMILES>
CN1CCN(CC1)C(=O)Cc1c[nH]c2ncccc12

$$$$

  CDD

  0  0  0  0  0  0            999 V2000
M  END
> <Molecule Name>
CVD-0004486

> <SMILES>
CC(=O)NCCc1c[nH]c2ccc(F)cc12

$$$$

  CDD

  0  0  0  0  0  0            999 V2000
M  END
> <Molecule Name>
CVD-0004485

> <SMILES>
N#Cc1ccc(cn1)N1CCCOCC1

$$$$

  CDD

  0  0  0  0  0  0            999 V2000
M  END
> <Molecule Name>
CVD-0004484

> <SMILES>
Nc1cncnc1

$$$$

  CDD

  0  0  0  0  0  0            999 V2000
M  END
> <Molecule Name>
CVD-0004483

> <SMILES>
CCC(N)=N

$$$$

  CDD

  0  0  0  0  0  0            999 V2000
M  END
> <Molecule Name>
CVD-0004482

> <SMILES>
CC(=O)NC(Cc1ccc(O)cc1)C(=O)NCC#CBr

$$$$

  CDD

  0  0  0  0  0  0            999 V2000
M  END
> <Molecule Name>
CVD-0004481

> <SMILES>
NS(=O)(=O)c1ccc(Br)cc1

$$$$

  CDD

  0  0  0  0  0  0            999 V2000
M  END
> <Molecule Name>
CVD-0004480

> <SMILES>
NC(=O)[C@H]1CCC[C@H]1c1ccsc1

$$$$

  CDD

  0  0  0  0  0  0            999 V2000
M  END
> <Molecule Name>
CVD-0004479

> <SMILES>
O=C(NCCc1ccncc1)NC1CCCCC1

$$$$

  CDD

  0  0  0  0  0  0            999 V2000
M  END
> <Molecule Name>
CVD-0004478

> <SMILES>
O=C(Nc1ccccc1)Nc1cccnc1

$$$$

  CDD

  0  0  0  0  0  0            999 V2000
M  END
> <Molecule Name>
CVD-0004477

> <SMILES>
Fc1ccccc1C(=O)NCCc1ccncc1

$$$$

  CDD

  0  0  0  0  0  0            999 V2000
M  END
> <Molecule Name>
CVD-0004476

> <SMILES>
CS(=O)(=O)NCCc1ccccc1

$$$$

  CDD

  0  0  0  0  0  0            999 V2000
M  END
> <Molecule Name>
CVD-0004475

> <SMILES>
SC(=N)c1ncc[nH]1

$$$$

  CDD

  0  0  0  0  0  0            999 V2000
M  END
> <Molecule Name>
CVD-0004474

> <SMILES>
SC(=N)c1ncccn1

$$$$

  CDD

  0  0  0  0  0  0            999 V2000
M  END
> <Molecule Name>
CVD-0004473

> <SMILES>
COc1ccc(NC(=O)C2CCN(CC2)C(=O)CCl)cn1

$$$$

  CDD

  0  0  0  0  0  0            999 V2000
M  END
> <Molecule Name>
CVD-0004472

> <SMILES>
CS(=O)(=O)c1ccc(cc1)N1CCNCC1

$$$$

  CDD

  0  0  0  0  0  0            999 V2000
M  END
> <Molecule Name>
CVD-0004471

> <SMILES>
Fc1ccc(cc1)N(C1CS(=O)(=O)C=C1)C(=O)CCl

$$$$

  CDD

  0  0  0  0  0  0            999 V2000
M  END
> <Molecule Name>
CVD-0004470

> <SMILES>
Cc1ccc(cc1)N(C1CS(=O)(=O)C=C1)C(=O)CCl

$$$$

  CDD

  0  0  0  0  0  0            999 V2000
M  END
> <Molecule Name>
CVD-0004469

> <SMILES>
Oc1ccccc1NC(=O)C1CCN(CC1)C(=O)CCl

$$$$

  CDD

  0  0  0  0  0  0            999 V2000
M  END
> <Molecule Name>
CVD-0004468

> <SMILES>
ClCC(=O)N1CCC(CC1)NC(=O)c1ccccc1

$$$$

  CDD

  0  0  0  0  0  0            999 V2000
M  END
> <Molecule Name>
CVD-0004467

> <SMILES>
Cc1cc(F)ccc1CS(N)(=O)=O

$$$$

  CDD

  0  0  0  0  0  0            999 V2000
M  END
> <Molecule Name>
CVD-0004466

> <SMILES>
CC(=O)NCc1ccc(cc1)S(N)(=O)=O

$$$$

  CDD

  0  0  0  0  0  0            999 V2000
M  END
> <Molecule Name>
CVD-0004465

> <SMILES>
CN1CCN(CC1)C(=O)Nc1ccccc1

$$$$

  CDD

  0  0  0  0  0  0            999 V2000
M  END
> <Molecule Name>
CVD-0004464

> <SMILES>
O=C(N1CCCCCC1)c1ccc2OCOc2c1

$$$$

  CDD

  0  0  0  0  0  0            999 V2000
M  END
> <Molecule Name>
CVD-0004463

> <SMILES>
Nc1ccc(cc1)S(=O)(=O)Nc1ccccn1

$$$$

  CDD

  0  0  0  0  0  0            999 V2000
M  END
> <Molecule Name>
CVD-0004462

> <SMILES>
NC(=O)c1ccc(NC(=O)[C@@H]2CCCO2)cc1

$$$$

  CDD

  0  0  0  0  0  0            999 V2000
M  END
> <Molecule Name>
CVD-0004461

> <SMILES>
CC(C)N(C)c1ncnc2n(C)ncc12

$$$$

  CDD

  0  0  0  0  0  0            999 V2000
M  END
> <Molecule Name>
CVD-0004460

> <SMILES>
COc1cccc2sc(NC(=O)CCl)nc12

$$$$

  CDD

  0  0  0  0  0  0            999 V2000
M  END
> <Molecule Name>
CVD-0004459

> <SMILES>
CS(=O)(=O)Cc1nc2ccccc2[nH]1

$$$$

  CDD

  0  0  0  0  0  0            999 V2000
M  END
> <Molecule Name>
CVD-0004458

> <SMILES>
CC1CN(CCO1)C(=O)Cn1cccn1

$$$$

  CDD

  0  0  0  0  0  0            999 V2000
M  END
> <Molecule Name>
CVD-0004457

> <SMILES>
Oc1ccccn1

$$$$

  CDD

  0  0  0  0  0  0            999 V2000
M  END
> <Molecule Name>
CVD-0004456

> <SMILES>
Fc1cccc(CNCc2ccco2)c1

$$$$

  CDD

  0  0  0  0  0  0            999 V2000
M  END
> <Molecule Name>
CVD-0004455

> <SMILES>
COC(=O)Nc1sc(C)nc1-c1ccccc1

$$$$

  CDD

  0  0  0  0  0  0            999 V2000
M  END
> <Molecule Name>
CVD-0004454

> <SMILES>
CCNCc1cn(C)nn1

$$$$

  CDD

  0  0  0  0  0  0            999 V2000
M  END
> <Molecule Name>
CVD-0004453

> <SMILES>
CC(=O)Nc1ccc(Oc2ncccn2)cc1

$$$$

  CDD

  0  0  0  0  0  0            999 V2000
M  END
> <Molecule Name>
CVD-0004452

> <SMILES>
NC(=O)C1CCN(CC1)C(=O)Nc1ccccc1

$$$$

  CDD

  0  0  0  0  0  0            999 V2000
M  END
> <Molecule Name>
CVD-0004451

> <SMILES>
OCC1CN(Cc2ccccc2)CCO1

$$$$

  CDD

  0  0  0  0  0  0            999 V2000
M  END
> <Molecule Name>
CVD-0004450

> <SMILES>
Clc1cccc(CN2CCOCC2)c1

$$$$

  CDD

  0  0  0  0  0  0            999 V2000
M  END
> <Molecule Name>
CVD-0004449

> <SMILES>
C(CN1CCOCC1)Sc1ccccc1

$$$$

  CDD

  0  0  0  0  0  0            999 V2000
M  END
> <Molecule Name>
CVD-0004448

> <SMILES>
C1CC2(CCN(C2)c2cnccn2)CO1

$$$$

  CDD

  0  0  0  0  0  0            999 V2000
M  END
> <Molecule Name>
CVD-0004447

> <SMILES>
Oc1ccccc1CNc1nc2ccccc2[nH]1

$$$$

  CDD

  0  0  0  0  0  0            999 V2000
M  END
> <Molecule Name>
CVD-0004446

> <SMILES>
OC1CS(=O)(=O)C1

$$$$

  CDD

  0  0  0  0  0  0            999 V2000
M  END
> <Molecule Name>
CVD-0004445

> <SMILES>
Cn1ccc(n1)C(=O)NC[C@@H]1CCCO1

$$$$

  CDD

  0  0  0  0  0  0            999 V2000
M  END
> <Molecule Name>
CVD-0004444

> <SMILES>
OCC1(CCCC1)c1ccccn1

$$$$

  CDD

  0  0  0  0  0  0            999 V2000
M  END
> <Molecule Name>
CVD-0004443

> <SMILES>
CC(=O)N1CCN(CC1)C(=O)CCl

$$$$

  CDD

  0  0  0  0  0  0            999 V2000
M  END
> <Molecule Name>
CVD-0004442

> <SMILES>
ClCC(=O)Nc1cccnc1Cl

$$$$

  CDD

  0  0  0  0  0  0            999 V2000
M  END
> <Molecule Name>
CVD-0004441

> <SMILES>
ClCC(=O)N1CCN(Cc2ccc(Cl)s2)CC1

$$$$

  CDD

  0  0  0  0  0  0            999 V2000
M  END
> <Molecule Name>
CVD-0004440

> <SMILES>
COc1ccc(cc1)N1CCN(CC1)C(=O)CCl

$$$$

  CDD

  0  0  0  0  0  0            999 V2000
M  END
> <Molecule Name>
CVD-0004439

> <SMILES>
ClCC(=O)N1CCN(CC1)C(=O)c1cccs1

$$$$

  CDD

  0  0  0  0  0  0            999 V2000
M  END
> <Molecule Name>
CVD-0004438

> <SMILES>
ClCC(=O)N1CCN(CC1)S(=O)(=O)c1ccc(Cl)s1

$$$$

  CDD

  0  0  0  0  0  0            999 V2000
M  END
> <Molecule Name>
CVD-0004437

> <SMILES>
ClCC(=O)N1CC(c2ccccc2)c2ccccc2C1

$$$$

  CDD

  0  0  0  0  0  0            999 V2000
M  END
> <Molecule Name>
CVD-0004436

> <SMILES>
CC(NC(=O)CCl)c1cccc(Cl)c1

$$$$

  CDD

  0  0  0  0  0  0            999 V2000
M  END
> <Molecule Name>
CVD-0004435

> <SMILES>
ClCC(=O)N(C1CS(=O)(=O)C=C1)c1ccccc1

$$$$

  CDD

  0  0  0  0  0  0            999 V2000
M  END
> <Molecule Name>
CVD-0004434

> <SMILES>
Cc1c(F)cccc1NC(=O)C(N(C(=O)C=C)c1ccc(cc1)C(C)(C)C)c1cccnc1

$$$$

  CDD

  0  0  0  0  0  0            999 V2000
M  END
> <Molecule Name>
CVD-0004433

> <SMILES>
CCc1cccc(C)c1NC(=O)C(N(C(=O)C=C)c1ccc(cc1)C1(C)CC1)c1cccnc1

$$$$

  CDD

  0  0  0  0  0  0            999 V2000
M  END
> <Molecule Name>
CVD-0004432

> <SMILES>
COc1ccc(NC(=O)C(N(C(=O)C=C)c2ccc(cc2)C(C)(C)C)c2cccnc2)cc1

$$$$

  CDD

  0  0  0  0  0  0            999 V2000
M  END
> <Molecule Name>
CVD-0004431

> <SMILES>
CCc1cccc(NC(=O)C(N(C(=O)C=C)c2ccc(cc2)C2(C)CC2)c2cccnc2)c1

$$$$

  CDD

  0  0  0  0  0  0            999 V2000
M  END
> <Molecule Name>
CVD-0004430

> <SMILES>
COc1ccc(NC(=O)C(N(C(=O)C=C)c2ccc(cc2)C2(C)CC2)c2cccnc2)cc1

$$$$

  CDD

  0  0  0  0  0  0            999 V2000
M  END
> <Molecule Name>
CVD-0004429

> <SMILES>
COc1ccc(NC(=O)C(N(C(=O)C=C)c2ccc(cc2)C2(C)CC2)c2cccnc2)c(C)c1

$$$$

  CDD

  0  0  0  0  0  0            999 V2000
M  END
> <Molecule Name>
CVD-0004428

> <SMILES>
COc1ccc(NC(=O)C(N(C(=O)C=C)c2ccc(cc2)C(C)(C)C)c2cccnc2)c(C)c1

$$$$

  CDD

  0  0  0  0  0  0            999 V2000
M  END
> <Molecule Name>
CVD-0004427

> <SMILES>
CC1(CC1)c1ccc(cc1)N(C(C(=O)Nc1ccc(Cl)cc1)c1cccnc1)C(=O)C=C

$$$$

  CDD

  0  0  0  0  0  0            999 V2000
M  END
> <Molecule Name>
CVD-0004426

> <SMILES>
Cc1c(F)cccc1NC(=O)C(N(C(=O)C=C)c1ccc(cc1)C1(C)CC1)c1cccnc1

$$$$

  CDD

  0  0  0  0  0  0            999 V2000
M  END
> <Molecule Name>
CVD-0004425

> <SMILES>
CCC(C)(C)c1ccc(cc1)N(C(C(=O)Nc1ccccc1Br)c1cccnc1)C(=O)C=C

$$$$

  CDD

  0  0  0  0  0  0            999 V2000
M  END
> <Molecule Name>
CVD-0004424

> <SMILES>
CC1(CC1)c1ccc(cc1)N(C(C(=O)Nc1ccc(Br)cc1)c1cccnc1)C(=O)C=C

$$$$

  CDD

  0  0  0  0  0  0            999 V2000
M  END
> <Molecule Name>
CVD-0004423

> <SMILES>
CCc1cccc(C)c1NC(=O)C(N(C(=O)C=C)c1ccc(cc1)C(C)(C)C)c1cccnc1

$$$$

  CDD

  0  0  0  0  0  0            999 V2000
M  END
> <Molecule Name>
CVD-0004422

> <SMILES>
CC(C)(C)NC(=O)C(N(C(=O)C=C)c1ccc(cc1)C1(C)CC1)c1cccnc1

$$$$

  CDD

  0  0  0  0  0  0            999 V2000
M  END
> <Molecule Name>
CVD-0004421

> <SMILES>
CC(C)C[C@H](NC(=O)CNC(=O)OC(C)(C)C)C(=O)N[C@@H](CN1CCCC1=O)C=C(C#N)C#N

$$$$

  CDD

  0  0  0  0  0  0            999 V2000
M  END
> <Molecule Name>
CVD-0004420

> <SMILES>
CC(C)C[C@H](NC(=O)CNC(=O)OC(C)(C)C)C(=O)N[C@@H](C[C@@H]1CCNC1=O)C1=CC(=O)N(Cc2ccccc2)C1=O

$$$$

  CDD

  0  0  0  0  0  0            999 V2000
M  END
> <Molecule Name>
CVD-0004419

> <SMILES>
CC(C)C[C@H](NC(=O)C(C)(C)NC(=O)OC(C)(C)C)C(=O)N[C@@H](CN1CCCC1=O)C1=CC(=O)N(Cc2ccccc2)C1=O

$$$$

  CDD

  0  0  0  0  0  0            999 V2000
M  END
> <Molecule Name>
CVD-0004418

> <SMILES>
COc1ccc(NC(=O)C(N(C(=O)C=C)c2ccccn2)c2cccnc2)cc1

$$$$

  CDD

  0  0  0  0  0  0            999 V2000
M  END
> <Molecule Name>
CVD-0004417

> <SMILES>
COc1ccc(NC(=O)C(N(C(=O)C=C)c2ccc(cc2)N(C)C)c2cccnc2)cc1

$$$$

  CDD

  0  0  0  0  0  0            999 V2000
M  END
> <Molecule Name>
CVD-0004416

> <SMILES>
FC(F)(F)c1ccc(cc1)N(C(C(=O)Nc1ccccn1)c1cccnc1)C(=O)C=C

$$$$

  CDD

  0  0  0  0  0  0            999 V2000
M  END
> <Molecule Name>
CVD-0004415

> <SMILES>
Clc1cccc(NC(=O)[C@@H]2CCC(=O)N2C2OC(=O)c3ccccc23)c1

$$$$

  CDD

  0  0  0  0  0  0            999 V2000
M  END
> <Molecule Name>
CVD-0004414

> <SMILES>
Clc1ccc(cc1)C1N2C(Cc3c1[nH]c1ccccc31)C(=O)N(CCCn1ccnc1)CC2=O

$$$$

  CDD

  0  0  0  0  0  0            999 V2000
M  END
> <Molecule Name>
CVD-0004413

> <SMILES>
OC(=O)[C@@H]1CCCN1C(=O)CC(CNC(=O)[C@@H]1CSCN1)c1ccc(Cl)cc1

$$$$

  CDD

  0  0  0  0  0  0            999 V2000
M  END
> <Molecule Name>
CVD-0004412

> <SMILES>
COC(=O)[C@@H]1Cc2c([nH]c3ccccc23)C(N1)c1ccccc1Cl

$$$$

  CDD

  0  0  0  0  0  0            999 V2000
M  END
> <Molecule Name>
CVD-0004411

> <SMILES>
CC(=O)N1CCC(CC1)C(=O)N1CCC(Cc2ccccc2)CC1

$$$$

  CDD

  0  0  0  0  0  0            999 V2000
M  END
> <Molecule Name>
CVD-0004410

> <SMILES>
COc1ccc(cc1)C(=O)N1CCC(CC1)C(=O)N1CCC(Cc2ccccc2)CC1

$$$$

  CDD

  0  0  0  0  0  0            999 V2000
M  END
> <Molecule Name>
CVD-0004409

> <SMILES>
CCOC(=O)C(CCc1ccccc1)NC(C)C(=O)N1CCCC1C(O)=O

$$$$

  CDD

  0  0  0  0  0  0            999 V2000
M  END
> <Molecule Name>
CVD-0004408

> <SMILES>
COc1ccc(cc1O)[C@@H]1CC(=O)c2c(O)cc(OC3OC(COC4OC(C)C(O)C(O)C4O)C(O)C(O)C3O)cc2O1

$$$$

  CDD

  0  0  0  0  0  0            999 V2000
M  END
> <Molecule Name>
CVD-0004407

> <SMILES>
CC1COC2=C1C(=O)C(=O)c1c3CCCC(C)(C)c3ccc21

$$$$

  CDD

  0  0  0  0  0  0            999 V2000
M  END
> <Molecule Name>
CVD-0004406

> <SMILES>
OC1CC(=CC(O)C1O)C(O)=O

$$$$

  CDD

  0  0  0  0  0  0            999 V2000
M  END
> <Molecule Name>
CVD-0004405

> <SMILES>
O=C(Nc1ccc(\C=C\C(=O)c2ccccc2)cc1)\C=C\c1ccccc1

$$$$

  CDD

  0  0  0  0  0  0            999 V2000
M  END
> <Molecule Name>
CVD-0004404

> <SMILES>
CC(C(O)=O)c1ccc2c(c1)n(C)c1ccc(Cl)cc21

$$$$

  CDD

  0  0  0  0  0  0            999 V2000
M  END
> <Molecule Name>
CVD-0004403

> <SMILES>
C[C@@H]1CCC(=C(C)C)C(=O)C1

$$$$

  CDD

  0  0  0  0  0  0            999 V2000
M  END
> <Molecule Name>
CVD-0004402

> <SMILES>
Oc1cc(O)c2CC(OC(=O)c3cc(O)c(O)c(O)c3)C(Oc2c1)c1cc(O)c(O)c(O)c1

$$$$

  CDD

  0  0  0  0  0  0            999 V2000
M  END
> <Molecule Name>
CVD-0004401

> <SMILES>
O[C@H]1Cc2c(O)cc(O)cc2O[C@@H]1c1ccc(O)c(O)c1

$$$$

  CDD

  0  0  0  0  0  0            999 V2000
M  END
> <Molecule Name>
CVD-0004400

> <SMILES>
O=C1\C(CCC\C1=C/c1ccco1)=C/c1ccco1

$$$$

  CDD

  0  0  0  0  0  0            999 V2000
M  END
> <Molecule Name>
CVD-0004399

> <SMILES>
NC(=O)CCC1NC2([C@H]3[C@@H]1C(=O)N(Cc1ccc4OCOc4c1)C3=O)C(=O)Nc1c2cccc1Cl

$$$$

  CDD

  0  0  0  0  0  0            999 V2000
M  END
> <Molecule Name>
CVD-0004398

> <SMILES>
NC(=N)NCCC[C@H](NC(=O)[C@@H](Cc1ccccc1)NC(=O)OCc1ccccc1)C(O)=O

$$$$

  CDD

  0  0  0  0  0  0            999 V2000
M  END
> <Molecule Name>
CVD-0004397

> <SMILES>
Cc1ccc(cc1)N(C(C(=O)NC1CCCCC1)c1ccc(O)cc1)C(=O)C1N2C(CC2=O)S(=O)(=O)C1(C)C

$$$$

  CDD

  0  0  0  0  0  0            999 V2000
M  END
> <Molecule Name>
CVD-0004396

> <SMILES>
COCCN1C(=O)[C@@H]2C(Cc3c[nH]c4ccccc34)NC3([C@@H]2C1=O)C(=O)Nc1ccc(Cl)cc31

$$$$

  CDD

  0  0  0  0  0  0            999 V2000
M  END
> <Molecule Name>
CVD-0004395

> <SMILES>
[O-][N+](=O)c1ccc(NC(=O)c2cc(NC(=O)c3ccccc3)cc(NC(=O)c3ccccc3)c2)cc1

$$$$

  CDD

  0  0  0  0  0  0            999 V2000
M  END
> <Molecule Name>
CVD-0004394

> <SMILES>
Fc1cccc(c1)S(=O)(=O)N1CCN(CC1)C(=O)CC1CN(C(=O)N1c1cccnc1)c1ccccc1

$$$$

  CDD

  0  0  0  0  0  0            999 V2000
M  END
> <Molecule Name>
CVD-0004393

> <SMILES>
OC(=O)CCC(=O)N1CCN(CC1)S(=O)(=O)c1cc(F)cc(F)c1

$$$$

  CDD

  0  0  0  0  0  0            999 V2000
M  END
> <Molecule Name>
CVD-0004392

> <SMILES>
CC(=O)NCCN1C=CC2C=C(C=CC12)S(N)(=O)=O

$$$$

  CDD

  0  0  0  0  0  0            999 V2000
M  END
> <Molecule Name>
CVD-0004391

> <SMILES>
CS(=O)(=O)NCCn1ccc2cc(ccc12)S(N)(=O)=O

$$$$

  CDD

  0  0  0  0  0  0            999 V2000
M  END
> <Molecule Name>
CVD-0004390

> <SMILES>
CC(=O)NCCN1CCCC2C=C(C=CC12)S(N)(=O)=O

$$$$

  CDD

  0  0  0  0  0  0            999 V2000
M  END
> <Molecule Name>
CVD-0004389

> <SMILES>
CS(=O)(=O)NCCN1CCCC2C=C(C=CC12)S(N)(=O)=O

$$$$

  CDD

  0  0  0  0  0  0            999 V2000
M  END
> <Molecule Name>
CVD-0004388

> <SMILES>
CC(=O)NCCc1ccc2cc(ccc2c1)S(N)(=O)=O

$$$$

  CDD

  0  0  0  0  0  0            999 V2000
M  END
> <Molecule Name>
CVD-0004387

> <SMILES>
CC(=O)NCCc1cccc2cc(ccc12)S(N)(=O)=O

$$$$

  CDD

  0  0  0  0  0  0            999 V2000
M  END
> <Molecule Name>
CVD-0004386

> <SMILES>
CS(=O)(=O)NCCc1ccc2cc(ccc2c1)S(N)(=O)=O

$$$$

  CDD

  0  0  0  0  0  0            999 V2000
M  END
> <Molecule Name>
CVD-0004385

> <SMILES>
FC(F)(F)c1ccc(cc1)N(C(C(=O)Nc1ccccc1)c1cccnc1)C(=O)C=C

$$$$

  CDD

  0  0  0  0  0  0            999 V2000
M  END
> <Molecule Name>
CVD-0004384

> <SMILES>
COc1ccc(NC(=O)C(N(C2CCCC2)C(=O)C=C)c2cccnc2)cc1

$$$$

  CDD

  0  0  0  0  0  0            999 V2000
M  END
> <Molecule Name>
CVD-0004383

> <SMILES>
COc1ccc(NC(=O)C(NC(=O)C=C)c2cccnc2)cc1

$$$$

  CDD

  0  0  0  0  0  0            999 V2000
M  END
> <Molecule Name>
CVD-0004382

> <SMILES>
COc1ccc(NC(=O)C(N(C)C(=O)C=C)c2cccnc2)cc1

$$$$

  CDD

  0  0  0  0  0  0            999 V2000
M  END
> <Molecule Name>
CVD-0004381

> <SMILES>
COc1ccc(NC(=O)C(N(C(=O)\C=C\CN(C)C)c2ccc(cc2)C(F)(F)F)c2cccnc2)cc1

$$$$

  CDD

  0  0  0  0  0  0            999 V2000
M  END
> <Molecule Name>
CVD-0004380

> <SMILES>
COc1ccc(NC(=O)C(N(C(=O)\C=C\C)c2ccc(cc2)C(F)(F)F)c2cccnc2)cc1

$$$$

  CDD

  0  0  0  0  0  0            999 V2000
M  END
> <Molecule Name>
CVD-0004379

> <SMILES>
COc1ccc(NC(=O)C(N(C(=O)C=C)c2ccc(cc2)C(F)(F)F)c2ccccc2)cc1

$$$$

  CDD

  0  0  0  0  0  0            999 V2000
M  END
> <Molecule Name>
CVD-0004378

> <SMILES>
COc1ccc(NC(=O)C(C)(N(C(=O)C=C)c2ccc(cc2)C(F)(F)F)c2cccnc2)cc1

$$$$

  CDD

  0  0  0  0  0  0            999 V2000
M  END
> <Molecule Name>
CVD-0004377

> <SMILES>
COc1ccc(NC(=O)C(C)N(C(=O)C=C)c2ccc(cc2)C(F)(F)F)cc1

$$$$

  CDD

  0  0  0  0  0  0            999 V2000
M  END
> <Molecule Name>
CVD-0004376

> <SMILES>
COc1ccc(NC(=O)C(C2CCCC2)N(C(=O)C=C)c2ccc(cc2)C(F)(F)F)cc1

$$$$

  CDD

  0  0  0  0  0  0            999 V2000
M  END
> <Molecule Name>
CVD-0004375

> <SMILES>
COc1ccc(NC(=O)C(N(C(=O)C=C)c2ccc(cc2)C(F)(F)F)C(C)(C)C)cc1

$$$$

  CDD

  0  0  0  0  0  0            999 V2000
M  END
> <Molecule Name>
CVD-0004374

> <SMILES>
FC(F)(F)c1ccc(cc1)N(C(C(=O)NC1CCCC1)c1cccnc1)C(=O)C=C

$$$$

  CDD

  0  0  0  0  0  0            999 V2000
M  END
> <Molecule Name>
CVD-0004373

> <SMILES>
COc1ccc(NC(=O)C(N(C(=O)C=C)C(C)(C)C)c2cccnc2)cc1

$$$$

  CDD

  0  0  0  0  0  0            999 V2000
M  END
> <Molecule Name>
CVD-0004372

> <SMILES>
COc1ccc(NC(=O)CN(C(=O)C=C)c2ccc(cc2)C(F)(F)F)cc1

$$$$

  CDD

  0  0  0  0  0  0            999 V2000
M  END
> <Molecule Name>
CVD-0004371

> <SMILES>
CC(C)(C)NC(=O)C(N(C(=O)C=C)c1ccc(cc1)C(F)(F)F)c1cccnc1

$$$$

  CDD

  0  0  0  0  0  0            999 V2000
M  END
> <Molecule Name>
CVD-0004370

> <SMILES>
NC(=O)C(N(C(=O)C=C)c1ccc(cc1)C(F)(F)F)c1cccnc1

$$$$

  CDD

  0  0  0  0  0  0            999 V2000
M  END
> <Molecule Name>
CVD-0004369

> <SMILES>
CNC(=O)C(N(C(=O)C=C)c1ccc(cc1)C(F)(F)F)c1cccnc1

$$$$

  CDD

  0  0  0  0  0  0            999 V2000
M  END
> <Molecule Name>
CVD-0004368

> <SMILES>
CCC(=O)N(C(C(=O)Nc1ccc(OC)cc1)c1cccnc1)c1ccc(cc1)C(F)(F)F

$$$$

  CDD

  0  0  0  0  0  0            999 V2000
M  END
> <Molecule Name>
CVD-0004367

> <SMILES>
OCc1ccccc1C#Cc1ccc(CNC(=O)N2CCOCC2)cc1

$$$$

  CDD

  0  0  0  0  0  0            999 V2000
M  END
> <Molecule Name>
CVD-0004366

> <SMILES>
OCCc1cccc(c1)C#Cc1ccc(CNC(=O)N2CCOCC2)cc1

$$$$

  CDD

  0  0  0  0  0  0            999 V2000
M  END
> <Molecule Name>
CVD-0004365

> <SMILES>
Cc1cccc(c1)C#Cc1ccc(CNC(=O)N2CCOCC2)cc1

$$$$

  CDD

  0  0  0  0  0  0            999 V2000
M  END
> <Molecule Name>
CVD-0004364

> <SMILES>
O=C(NCc1ccc(cc1)C#Cc1ccccc1)N1CCOCC1

$$$$

  CDD

  0  0  0  0  0  0            999 V2000
M  END
> <Molecule Name>
CVD-0004363

> <SMILES>
CN(Cc1ccccc1)C(=O)C#Cc1ccc(CNC(=O)N2CCOCC2)cc1

$$$$

  CDD

  0  0  0  0  0  0            999 V2000
M  END
> <Molecule Name>
CVD-0004362

> <SMILES>
FC(F)(F)c1ccc(CNC(=O)C#Cc2ccc(CNC(=O)N3CCOCC3)cc2)cc1

$$$$

  CDD

  0  0  0  0  0  0            999 V2000
M  END
> <Molecule Name>
CVD-0004361

> <SMILES>
O=C(NCc1ccccc1)C#Cc1ccc(CNC(=O)N2CCOCC2)cc1

$$$$

  CDD

  0  0  0  0  0  0            999 V2000
M  END
> <Molecule Name>
CVD-0004360

> <SMILES>
CC(=O)N[C@@H](Cc1c[nH]c2cccc(OC(C)=O)c12)C(=O)NCc1ccccc1

$$$$

  CDD

  0  0  0  0  0  0            999 V2000
M  END
> <Molecule Name>
CVD-0004359

> <SMILES>
CC(=O)N[C@@H](Cc1c[nH]c2cccc(OC(C)=O)c12)C(=O)NCC#CBr

$$$$

  CDD

  0  0  0  0  0  0            999 V2000
M  END
> <Molecule Name>
CVD-0004358

> <SMILES>
CC(=O)N[C@@H](Cc1ccc(O)cc1)C(=O)NCc1ccc(Br)cc1

$$$$

  CDD

  0  0  0  0  0  0            999 V2000
M  END
> <Molecule Name>
CVD-0004357

> <SMILES>
CC(=O)N[C@@H](Cc1ccc(O)cc1)C(=O)NCc1cccc(Cl)c1

$$$$

  CDD

  0  0  0  0  0  0            999 V2000
M  END
> <Molecule Name>
CVD-0004356

> <SMILES>
CC(=O)N[C@@H](Cc1ccc(O)cc1)C(=O)NCc1ccc(Cl)cc1

$$$$

  CDD

  0  0  0  0  0  0            999 V2000
M  END
> <Molecule Name>
CVD-0004355

> <SMILES>
CC(=O)N[C@@H](Cc1ccc(O)cc1)C(=O)NCc1ccc(cc1)C#N

$$$$

  CDD

  0  0  0  0  0  0            999 V2000
M  END
> <Molecule Name>
CVD-0004354

> <SMILES>
CN1CCC(CNC(=O)[C@H](Cc2ccc(O)cc2)NC(C)=O)CC1

$$$$

  CDD

  0  0  0  0  0  0            999 V2000
M  END
> <Molecule Name>
CVD-0004353

> <SMILES>
CN1CCC(CNC(=O)[C@H](Cc2ccc(O)c(F)c2)NC(C)=O)CC1

$$$$

  CDD

  0  0  0  0  0  0            999 V2000
M  END
> <Molecule Name>
CVD-0004352

> <SMILES>
CC(=O)N[C@@H](Cc1ccc(O)c(F)c1)C(=O)NCc1cccc(Cl)c1

$$$$

  CDD

  0  0  0  0  0  0            999 V2000
M  END
> <Molecule Name>
CVD-0004351

> <SMILES>
CC(=O)N[C@@H](Cc1ccc(O)c(F)c1)C(=O)NCc1ccc(Cl)cc1

$$$$

  CDD

  0  0  0  0  0  0            999 V2000
M  END
> <Molecule Name>
CVD-0004350

> <SMILES>
CC(=O)N[C@@H](Cc1ccc(O)c(F)c1)C(=O)NCC#CBr

$$$$

  CDD

  0  0  0  0  0  0            999 V2000
M  END
> <Molecule Name>
CVD-0004349

> <SMILES>
CC(=O)N[C@@H](Cc1c[nH]c2ccccc12)C(=O)NCc1ccccc1

$$$$

  CDD

  0  0  0  0  0  0            999 V2000
M  END
> <Molecule Name>
CVD-0004348

> <SMILES>
CC(=O)N[C@@H](Cc1c[nH]c2ncccc12)C(=O)NCc1cccc(Cl)c1

$$$$

  CDD

  0  0  0  0  0  0            999 V2000
M  END
> <Molecule Name>
CVD-0004347

> <SMILES>
CC(=O)N[C@@H](Cc1c[nH]c2ncccc12)C(=O)NCc1ccc(Cl)cc1

$$$$

  CDD

  0  0  0  0  0  0            999 V2000
M  END
> <Molecule Name>
CVD-0004346

> <SMILES>
CC(=O)N[C@@H](Cc1c[nH]c2ncccc12)C(=O)NCc1ccccc1

$$$$

  CDD

  0  0  0  0  0  0            999 V2000
M  END
> <Molecule Name>
CVD-0004345

> <SMILES>
COc1cccc2[nH]cc(C[C@H](NC(C)=O)C(=O)NCC#CBr)c12

$$$$

  CDD

  0  0  0  0  0  0            999 V2000
M  END
> <Molecule Name>
CVD-0004344

> <SMILES>
CC(=O)N[C@@H](Cc1c[nH]c2ccccc12)C(=O)NCC#CBr

$$$$

  CDD

  0  0  0  0  0  0            999 V2000
M  END
> <Molecule Name>
CVD-0004343

> <SMILES>
CC(=O)N[C@@H](Cc1c[nH]c2ncccc12)C(=O)NCC#CBr

$$$$

  CDD

  0  0  0  0  0  0            999 V2000
M  END
> <Molecule Name>
CVD-0004342

> <SMILES>
Fc1cccc(c1)S(=O)(=O)N1CCN(C(C1)C1CCC(CC1)N(C(=O)Nc1cccnc1)c1ccccc1)C(=O)CCl

$$$$

  CDD

  0  0  0  0  0  0            999 V2000
M  END
> <Molecule Name>
CVD-0004341

> <SMILES>
Fc1cccc(c1)S(=O)(=O)N1CCN(C(C1)c1nccs1)C(=O)CCl

$$$$

  CDD

  0  0  0  0  0  0            999 V2000
M  END
> <Molecule Name>
CVD-0004340

> <SMILES>
Fc1ccc(NC(=O)Nc2nnc(CN3C=CC4C=CC=CC34)s2)cc1

$$$$

  CDD

  0  0  0  0  0  0            999 V2000
M  END
> <Molecule Name>
CVD-0004339

> <SMILES>
OCC(O)N1CCN(CC1)S(O)(O)C1CCCC(F)C1

$$$$

  CDD

  0  0  0  0  0  0            999 V2000
M  END
> <Molecule Name>
CVD-0004338

> <SMILES>
CC(Br)NC(=O)Nc1ccccc1

$$$$

  CDD

  0  0  0  0  0  0            999 V2000
M  END
> <Molecule Name>
CVD-0004337

> <SMILES>
O=c1cc(oc2ccccc12)-c1ccc(OCc2ccccc2)cc1

$$$$

  CDD

  0  0  0  0  0  0            999 V2000
M  END
> <Molecule Name>
CVD-0004336

> <SMILES>
COC1=CC(=O)C(O)=C(C[C@]2(C)[C@@H](C)CC[C@@]3(C)[C@H]2CCCC3=C)C1=O

$$$$

  CDD

  0  0  0  0  0  0            999 V2000
M  END
> <Molecule Name>
CVD-0004335

> <SMILES>
COc1ccc2c(c1)oc(cc2=O)-c1ccc(OCc2ccccc2)cc1

$$$$

  CDD

  0  0  0  0  0  0            999 V2000
M  END
> <Molecule Name>
CVD-0004334

> <SMILES>
Oc1ccc2c3ccc(O)c4c3c(ccc4=O)c3ccc(=O)c1c23

$$$$

  CDD

  0  0  0  0  0  0            999 V2000
M  END
> <Molecule Name>
CVD-0004333

> <SMILES>
COc1ccc(OCc2ccccc2)cc1-c1cc(=O)c2ccccc2o1

$$$$

  CDD

  0  0  0  0  0  0            999 V2000
M  END
> <Molecule Name>
CVD-0004332

> <SMILES>
C[N+]1=C2C=C(N\C=C\c3ccc(O)cc3)C(=O)c3[nH]cc(CC1)c23

$$$$

  CDD

  0  0  0  0  0  0            999 V2000
M  END
> <Molecule Name>
CVD-0004331

> <SMILES>
C[N+]1=C2C=C(NCCc3ccc(O)cc3)C(=O)c3[nH]cc(CC1)c23

$$$$

  CDD

  0  0  0  0  0  0            999 V2000
M  END
> <Molecule Name>
CVD-0004330

> <SMILES>
COc1ccc2c(c1)oc(-c1ccc(OCc3ccccc3)c(OCc3ccccc3)c1)c(O)c2=O

$$$$

  CDD

  0  0  0  0  0  0            999 V2000
M  END
> <Molecule Name>
CVD-0004329

> <SMILES>
COc1ccc2c(c1)oc(cc2=O)-c1cc(OCc2ccccc2)ccc1OC

$$$$

  CDD

  0  0  0  0  0  0            999 V2000
M  END
> <Molecule Name>
CVD-0004328

> <SMILES>
CC12CCCC(O1)c1c(O)c3C(=O)c4c(O)cc(O)cc4C(=O)c3cc1O2

$$$$

  CDD

  0  0  0  0  0  0            999 V2000
M  END
> <Molecule Name>
CVD-0004327

> <SMILES>
Oc1c(oc2ccccc2c1=O)-c1cc(OCc2ccccc2)ccc1OCc1ccccc1

$$$$

  CDD

  0  0  0  0  0  0            999 V2000
M  END
> <Molecule Name>
CVD-0004326

> <SMILES>
Cc1cc(O)c2C(=O)C=CC(=O)c2c1-c1c(C)cc2C(=O)C=CC(=O)c2c1O

$$$$

  CDD

  0  0  0  0  0  0            999 V2000
M  END
> <Molecule Name>
CVD-0004325

> <SMILES>
Cc1cc(O)c2C(=O)C3CC(O)(C4=C3C(=O)c3cccc(O)c3C4=O)c2c1

$$$$

  CDD

  0  0  0  0  0  0            999 V2000
M  END
> <Molecule Name>
CVD-0004324

> <SMILES>
CC(C)(O)CC1C2=C(Oc3c1c1C=CC(C)(C)Oc1c1ccccc31)C(=O)c1ccccc1C2=O

$$$$

  CDD

  0  0  0  0  0  0            999 V2000
M  END
> <Molecule Name>
CVD-0004323

> <SMILES>
COc1cc2C(CC(C)(C)Oc2c2ccccc12)Oc1cc2C(=O)c3ccccc3C(=O)c2cc1C

$$$$

  CDD

  0  0  0  0  0  0            999 V2000
M  END
> <Molecule Name>
CVD-0004322

> <SMILES>
C[C@H]1O[C@H](C)c2c(O)c3c4c5c(O[C@@H]6[C@@H](C)O[C@H](C)c7c6c5c5c6c(OC1c2c46)cc(O)c5c7=O)cc3=O

$$$$

  CDD

  0  0  0  0  0  0            999 V2000
M  END
> <Molecule Name>
CVD-0004321

> <SMILES>
Cc1cc(O)c2c3C(=O)c4cccc(O)c4C(=O)c3ccc2c1

$$$$

  CDD

  0  0  0  0  0  0            999 V2000
M  END
> <Molecule Name>
CVD-0004320

> <SMILES>
CC(C)C1=C(O)C(=O)C2=C(CC[C@H]3C(C)(C)CCC[C@]23C)C1=O

$$$$

  CDD

  0  0  0  0  0  0            999 V2000
M  END
> <Molecule Name>
CVD-0004319

> <SMILES>
C\C=C1\C2[C@@H](OC(C)=O)O[C@@H](OC(C)=O)C2CC=C1C1(C)CCCC(C)(C)C1

$$$$

  CDD

  0  0  0  0  0  0            999 V2000
M  END
> <Molecule Name>
CVD-0004318

> <SMILES>
C[C@H]1C(=O)OC2O[C@@H](OC(C)=O)C3CCC(=C1C23)[C@@]1(C)CCCC(C)(C)C1

$$$$

  CDD

  0  0  0  0  0  0            999 V2000
M  END
> <Molecule Name>
CVD-0004317

> <SMILES>
CC(=O)N1CCN(c2ccncc12)S(=O)(=O)c1cccc(F)c1

$$$$

  CDD

  0  0  0  0  0  0            999 V2000
M  END
> <Molecule Name>
CVD-0004316

> <SMILES>
Fc1cccc(c1)S(=O)(=O)N1CCN(C(=O)CNCN(C(=O)Nc2ccccc2)c2cccnc2)c2cnccc12

$$$$

  CDD

  0  0  0  0  0  0            999 V2000
M  END
> <Molecule Name>
CVD-0004315

> <SMILES>
OC(NC1CCCNC1)N(CNc1cc2N(CCN(c2cn1)S(=O)(=O)c1cccc(F)c1)C(=O)CCl)c1ccccc1

$$$$

  CDD

  0  0  0  0  0  0            999 V2000
M  END
> <Molecule Name>
CVD-0004314

> <SMILES>
Fc1cccc(c1)S(=O)(=O)N1CCN(CC1CNCN(C(=O)Nc1cccnc1)c1ccccc1)C(=O)CCl

$$$$

  CDD

  0  0  0  0  0  0            999 V2000
M  END
> <Molecule Name>
CVD-0004313

> <SMILES>
OC1CN(CCN1C(=O)CCl)S(=O)(=O)c1cccc(F)c1

$$$$

  CDD

  0  0  0  0  0  0            999 V2000
M  END
> <Molecule Name>
CVD-0004312

> <SMILES>
CC(C)(C)NC(=O)C(N(C1CC11CC(C)(C)C1)C(=O)C=C)c1cccnc1

$$$$

  CDD

  0  0  0  0  0  0            999 V2000
M  END
> <Molecule Name>
CVD-0004311

> <SMILES>
Cc1ccccc1[C@H]1C[C@@H](C1)N(C(C(=O)NC(C)(C)C)c1cccnc1)C(=O)C=C

$$$$

  CDD

  0  0  0  0  0  0            999 V2000
M  END
> <Molecule Name>
CVD-0004310

> <SMILES>
CC(C)(C)NC(=O)C(N(C1CC(C1)OC(C)(C)C)C(=O)C=C)c1cccnc1

$$$$

  CDD

  0  0  0  0  0  0            999 V2000
M  END
> <Molecule Name>
CVD-0004309

> <SMILES>
CC(C)(C)NC(=O)C(N(C1CCOC1=O)C(=O)C=C)c1cccnc1

$$$$

  CDD

  0  0  0  0  0  0            999 V2000
M  END
> <Molecule Name>
CVD-0004308

> <SMILES>
CC(C)(C)NC(=O)C(N(C(=O)C=C)c1ccc(cc1)N1CCC1)c1cccnc1

$$$$

  CDD

  0  0  0  0  0  0            999 V2000
M  END
> <Molecule Name>
CVD-0004307

> <SMILES>
CC(C)(C)NC(=O)C(N(C1CCC2(CCCC2)CC1)C(=O)C=C)c1cccnc1

$$$$

  CDD

  0  0  0  0  0  0            999 V2000
M  END
> <Molecule Name>
CVD-0004306

> <SMILES>
CC1CC(N(C(C(=O)NC(C)(C)C)c2cccnc2)C(=O)C=C)C(=O)O1

$$$$

  CDD

  0  0  0  0  0  0            999 V2000
M  END
> <Molecule Name>
CVD-0004305

> <SMILES>
CC(C)(C)NC(=O)C(N(C1CCC2(CCCC2)C1)C(=O)C=C)c1cccnc1

$$$$

  CDD

  0  0  0  0  0  0            999 V2000
M  END
> <Molecule Name>
CVD-0004304

> <SMILES>
CC(C)(C)NC(=O)C(N(C(=O)C=C)c1ccc(cc1)C(F)(F)CF)c1cccnc1

$$$$

  CDD

  0  0  0  0  0  0            999 V2000
M  END
> <Molecule Name>
CVD-0004303

> <SMILES>
CC(C)(C)NC(=O)C(N(C1CCCc2cc(O)ccc12)C(=O)C=C)c1cccnc1

$$$$

  CDD

  0  0  0  0  0  0            999 V2000
M  END
> <Molecule Name>
CVD-0004302

> <SMILES>
Cc1c(Cl)cccc1NC(=O)C(N(C(=O)C=C)c1ccc(cc1)C(C)(C)C)c1cccnc1

$$$$

  CDD

  0  0  0  0  0  0            999 V2000
M  END
> <Molecule Name>
CVD-0004301

> <SMILES>
CC(C)(C)NC(=O)C(N(C1COC2(CCC2)C1)C(=O)C=C)c1cccnc1

$$$$

  CDD

  0  0  0  0  0  0            999 V2000
M  END
> <Molecule Name>
CVD-0004300

> <SMILES>
CC(C)(C)NC(=O)C(N(C(=O)C=C)c1ccc2CNC(=O)Nc2c1)c1cccnc1

$$$$

  CDD

  0  0  0  0  0  0            999 V2000
M  END
> <Molecule Name>
CVD-0004299

> <SMILES>
CC(C)(C)NC(=O)C(N(C(=O)C=C)c1ccc(OCC#C)cc1)c1cccnc1

$$$$

  CDD

  0  0  0  0  0  0            999 V2000
M  END
> <Molecule Name>
CVD-0004298

> <SMILES>
CC1CCC(CN1)N(C(C(=O)NC(C)(C)C)c1cccnc1)C(=O)C=C

$$$$

  CDD

  0  0  0  0  0  0            999 V2000
M  END
> <Molecule Name>
CVD-0004297

> <SMILES>
CC(C)(C)NC(=O)C(N(C(=O)C=C)c1cnn(c1)C1CC1)c1cccnc1

$$$$

  CDD

  0  0  0  0  0  0            999 V2000
M  END
> <Molecule Name>
CVD-0004296

> <SMILES>
COc1ncc(cc1Br)N(C(C(=O)NC(C)(C)C)c1cccnc1)C(=O)C=C

$$$$

  CDD

  0  0  0  0  0  0            999 V2000
M  END
> <Molecule Name>
CVD-0004295

> <SMILES>
CC(C)(C)NC(=O)C(N(C(=O)C=C)c1ccc(cc1)C1CCOC1)c1cccnc1

$$$$

  CDD

  0  0  0  0  0  0            999 V2000
M  END
> <Molecule Name>
CVD-0004294

> <SMILES>
CC(C)(C)NC(=O)C(N(C(=O)C=C)c1ccc(cc1)C(C)(C)C#N)c1cccnc1

$$$$

  CDD

  0  0  0  0  0  0            999 V2000
M  END
> <Molecule Name>
CVD-0004293

> <SMILES>
Cc1ncc(s1)N(C(C(=O)NC(C)(C)C)c1cccnc1)C(=O)C=C

$$$$

  CDD

  0  0  0  0  0  0            999 V2000
M  END
> <Molecule Name>
CVD-0004292

> <SMILES>
CC(C)(C)NC(=O)C(N(C(=O)C=C)c1ccc(cc1)C(F)F)c1cccnc1

$$$$

  CDD

  0  0  0  0  0  0            999 V2000
M  END
> <Molecule Name>
CVD-0004291

> <SMILES>
CC(C)(C)c1ccc(cc1)N(C(C(=O)NC1CCCCC1)c1cccnc1)C(=O)C=C

$$$$

  CDD

  0  0  0  0  0  0            999 V2000
M  END
> <Molecule Name>
CVD-0004290

> <SMILES>
CC(C)(C)NC(=O)C(N(C(=O)C=C)c1ccc(I)c(Br)c1)c1cccnc1

$$$$

  CDD

  0  0  0  0  0  0            999 V2000
M  END
> <Molecule Name>
CVD-0004289

> <SMILES>
CC(C)(C)NC(=O)C(Nc1ccc(CCC#N)cc1)c1cccnc1

$$$$

  CDD

  0  0  0  0  0  0            999 V2000
M  END
> <Molecule Name>
CVD-0004288

> <SMILES>
CC(C)(C)NC(=O)C(N(C(=O)C=C)c1ccccc1Oc1cc(F)cc(F)c1)c1cccnc1

$$$$

  CDD

  0  0  0  0  0  0            999 V2000
M  END
> <Molecule Name>
CVD-0004287

> <SMILES>
CC(C)(C)NC(=O)C(N(CCC1COC(C)(C)C1)C(=O)C=C)c1cccnc1

$$$$

  CDD

  0  0  0  0  0  0            999 V2000
M  END
> <Molecule Name>
CVD-0004286

> <SMILES>
CSCC1CC(C1)N(C(C(=O)NC(C)(C)C)c1cccnc1)C(=O)C=C

$$$$

  CDD

  0  0  0  0  0  0            999 V2000
M  END
> <Molecule Name>
CVD-0004285

> <SMILES>
CC(C)(C)NC(=O)C(N(C(=O)C=C)c1cncc(c1)C#C)c1cccnc1

$$$$

  CDD

  0  0  0  0  0  0            999 V2000
M  END
> <Molecule Name>
CVD-0004284

> <SMILES>
CCc1ccc(cc1I)N(C(C(=O)NC(C)(C)C)c1cccnc1)C(=O)C=C

$$$$

  CDD

  0  0  0  0  0  0            999 V2000
M  END
> <Molecule Name>
CVD-0004283

> <SMILES>
CC#CCC(CO)N(C(C(=O)NC(C)(C)C)c1cccnc1)C(=O)C=C

$$$$

  CDD

  0  0  0  0  0  0            999 V2000
M  END
> <Molecule Name>
CVD-0004282

> <SMILES>
CC(C)(C)NC(=O)C(N(C1CC1c1ccccc1)C(=O)C=C)c1cccnc1

$$$$

  CDD

  0  0  0  0  0  0            999 V2000
M  END
> <Molecule Name>
CVD-0004281

> <SMILES>
CN(C)c1ncc(cn1)N(C(C(=O)NC(C)(C)C)c1cccnc1)C(=O)C=C

$$$$

  CDD

  0  0  0  0  0  0            999 V2000
M  END
> <Molecule Name>
CVD-0004280

> <SMILES>
CCOC(=O)CCCNC(=O)C(N(C(=O)C=C)c1ccc(cc1)C(C)(C)C)c1cccnc1

$$$$

  CDD

  0  0  0  0  0  0            999 V2000
M  END
> <Molecule Name>
CVD-0004279

> <SMILES>
CC(C)(C)C[C@@H]1C[C@H]1N(C(C(=O)NC(C)(C)C)c1cccnc1)C(=O)C=C

$$$$

  CDD

  0  0  0  0  0  0            999 V2000
M  END
> <Molecule Name>
CVD-0004278

> <SMILES>
CC(C)(C)NC(=O)C(N(C(=O)C=C)c1ccc2cc[nH]c2c1)c1cccnc1

$$$$

  CDD

  0  0  0  0  0  0            999 V2000
M  END
> <Molecule Name>
CVD-0004277

> <SMILES>
CC(C)C1CCCC(CC1)N(C(C(=O)NC(C)(C)C)c1cccnc1)C(=O)C=C

$$$$

  CDD

  0  0  0  0  0  0            999 V2000
M  END
> <Molecule Name>
CVD-0004276

> <SMILES>
CC(COc1cccc(F)c1)N(C(C(=O)NC(C)(C)C)c1cccnc1)C(=O)C=C

$$$$

  CDD

  0  0  0  0  0  0            999 V2000
M  END
> <Molecule Name>
CVD-0004275

> <SMILES>
COc1ncc(cc1C#N)N(C(C(=O)NC(C)(C)C)c1cccnc1)C(=O)C=C

$$$$

  CDD

  0  0  0  0  0  0            999 V2000
M  END
> <Molecule Name>
CVD-0004274

> <SMILES>
CC(C)(C)NC(=O)C(N([C@@H]1C[C@H]1C1CCCCC1)C(=O)C=C)c1cccnc1

$$$$

  CDD

  0  0  0  0  0  0            999 V2000
M  END
> <Molecule Name>
CVD-0004273

> <SMILES>
CC(C)(C)NC(=O)C(N([C@@H]1C[C@H]1c1ccccc1)C(=O)C=C)c1cccnc1

$$$$

  CDD

  0  0  0  0  0  0            999 V2000
M  END
> <Molecule Name>
CVD-0004272

> <SMILES>
CC(C)(C)NC(=O)C(N([C@@H]1C[C@@H]1c1ccccc1)C(=O)C=C)c1cccnc1

$$$$

  CDD

  0  0  0  0  0  0            999 V2000
M  END
> <Molecule Name>
CVD-0004271

> <SMILES>
Cc1ccncc1C(N(C(=O)C=C)c1ccc(cc1)C(C)(C)C)C(=O)NC(C)(C)C

$$$$

  CDD

  0  0  0  0  0  0            999 V2000
M  END
> <Molecule Name>
CVD-0004270

> <SMILES>
CC(C)(C)NC(=O)C(N(C(=O)C=C)c1ccc(cc1)C(C)(C)C)c1cncc(c1)C(C)(F)F

$$$$

  CDD

  0  0  0  0  0  0            999 V2000
M  END
> <Molecule Name>
CVD-0004269

> <SMILES>
COC(=O)[C@@H]1CC[C@@H](C1)NC(=O)C(N(C(=O)C=C)c1ccc(cc1)C(C)(C)C)c1cccnc1

$$$$

  CDD

  0  0  0  0  0  0            999 V2000
M  END
> <Molecule Name>
CVD-0004268

> <SMILES>
COc1cncc(C(N(C(=O)C=C)c2ccc(cc2)C(C)(C)C)C(=O)NC(C)(C)C)c1C

$$$$

  CDD

  0  0  0  0  0  0            999 V2000
M  END
> <Molecule Name>
CVD-0004267

> <SMILES>
COc1cncc(c1)C(N(C(=O)C=C)c1ccc(cc1)C(C)(C)C)C(=O)NC(C)(C)C

$$$$

  CDD

  0  0  0  0  0  0            999 V2000
M  END
> <Molecule Name>
CVD-0004266

> <SMILES>
CCOc1cncc(c1)C(N(C(=O)C=C)c1ccc(cc1)C(C)(C)C)C(=O)NC(C)(C)C

$$$$

  CDD

  0  0  0  0  0  0            999 V2000
M  END
> <Molecule Name>
CVD-0004265

> <SMILES>
Cc1ncccc1C(N(C(=O)C=C)c1ccc(cc1)C(C)(C)C)C(=O)NC(C)(C)C

$$$$

  CDD

  0  0  0  0  0  0            999 V2000
M  END
> <Molecule Name>
CVD-0004264

> <SMILES>
Cc1c(Br)cncc1C(N(C(=O)C=C)c1ccc(cc1)C(C)(C)C)C(=O)NC(C)(C)C

$$$$

  CDD

  0  0  0  0  0  0            999 V2000
M  END
> <Molecule Name>
CVD-0004263

> <SMILES>
CC(C)(C)NC(=O)C(N(C(=O)C=C)c1ccc(cc1)C(C)(C)C)c1cncc(Br)c1

$$$$

  CDD

  0  0  0  0  0  0            999 V2000
M  END
> <Molecule Name>
CVD-0004262

> <SMILES>
CC(C)(C)NC(=O)C(N(C(=O)C=C)c1ccc(cc1)C(C)(C)C)c1cncc(Cl)c1

$$$$

  CDD

  0  0  0  0  0  0            999 V2000
M  END
> <Molecule Name>
CVD-0004261

> <SMILES>
CC(C)(C)NC(=O)C(N(C(=O)C=C)c1ccc(cc1)C(C)(C)C)c1cncc2ccccc12

$$$$

  CDD

  0  0  0  0  0  0            999 V2000
M  END
> <Molecule Name>
CVD-0004260

> <SMILES>
CC(C)(C)NC(=O)C(N(C(=O)C=C)c1ccc(cc1)C(C)(C)C)c1cnccc1N

$$$$

  CDD

  0  0  0  0  0  0            999 V2000
M  END
> <Molecule Name>
CVD-0004259

> <SMILES>
CC(C)(C)NC(=O)C(N(C(=O)C=C)c1ccc(cc1)C(C)(C)C)c1cnccc1O

$$$$

  CDD

  0  0  0  0  0  0            999 V2000
M  END
> <Molecule Name>
CVD-0004258

> <SMILES>
CC(C)(C)c1ccc(cc1)N(C(C(=O)Nc1cccc(Br)c1)c1cccnc1)C(=O)C=C

$$$$

  CDD

  0  0  0  0  0  0            999 V2000
M  END
> <Molecule Name>
CVD-0004257

> <SMILES>
CC(C)(C)NC(=O)C(N(C(=O)C=C)c1ccc(cc1)C(C)(C)C)c1cnc[nH]1

$$$$

  CDD

  0  0  0  0  0  0            999 V2000
M  END
> <Molecule Name>
CVD-0004256

> <SMILES>
CC(C)(C)NC(=O)C(N(C(=O)C=C)c1ccc(cc1)C(C)(C)C)c1cnccn1

$$$$

  CDD

  0  0  0  0  0  0            999 V2000
M  END
> <Molecule Name>
CVD-0004255

> <SMILES>
CC(C)(C)c1ccc(cc1)N(C(C(=O)NCCc1cccc(F)c1)c1cccnc1)C(=O)C=C

$$$$

  CDD

  0  0  0  0  0  0            999 V2000
M  END
> <Molecule Name>
CVD-0004254

> <SMILES>
CC(C)(C)c1ccc(cc1)N(C(C(=O)Nc1cccc(F)c1)c1cccnc1)C(=O)C=C

$$$$

  CDD

  0  0  0  0  0  0            999 V2000
M  END
> <Molecule Name>
CVD-0004253

> <SMILES>
COc1ccc(NC(=O)C(N(C(=O)C=C)c2ccc(cc2)C(C)(C)C)c2cccnc2)c(OC)c1

$$$$

  CDD

  0  0  0  0  0  0            999 V2000
M  END
> <Molecule Name>
CVD-0004252

> <SMILES>
CC(C)(C)c1ccc(cc1)N(C(C(=O)NC1CC1)c1cccnc1)C(=O)C=C

$$$$

  CDD

  0  0  0  0  0  0            999 V2000
M  END
> <Molecule Name>
CVD-0004251

> <SMILES>
CC(C)(C)c1ccc(cc1)N(C(C(=O)Nc1ccc2OCOc2c1)c1cccnc1)C(=O)C=C

$$$$

  CDD

  0  0  0  0  0  0            999 V2000
M  END
> <Molecule Name>
CVD-0004250

> <SMILES>
CC(C)(C)c1ccc(cc1)N(C(C(=O)Nc1ccccc1Cl)c1cccnc1)C(=O)C=C

$$$$

  CDD

  0  0  0  0  0  0            999 V2000
M  END
> <Molecule Name>
CVD-0004249

> <SMILES>
CC(C)(C)c1ccc(cc1)N(C(C(=O)Nc1ccc(F)cc1)c1cccnc1)C(=O)C=C

$$$$

  CDD

  0  0  0  0  0  0            999 V2000
M  END
> <Molecule Name>
CVD-0004248

> <SMILES>
CC(C)(C)c1ccc(cc1)N(C(C(=O)NCc1ccccc1)c1cccnc1)C(=O)C=C

$$$$

  CDD

  0  0  0  0  0  0            999 V2000
M  END
> <Molecule Name>
CVD-0004247

> <SMILES>
CC(C)(C)c1ccc(cc1)N(C(C(=O)Nc1ccc2OCCOc2c1)c1cccnc1)C(=O)C=C

$$$$

  CDD

  0  0  0  0  0  0            999 V2000
M  END
> <Molecule Name>
CVD-0004246

> <SMILES>
CC(C)(C)c1ccc(cc1)N(C(C(=O)NC1CCOCC1)c1cccnc1)C(=O)C=C

$$$$

  CDD

  0  0  0  0  0  0            999 V2000
M  END
> <Molecule Name>
CVD-0004245

> <SMILES>
CC(C)(C)c1ccc(cc1)N(C(C(=O)Nc1cccc(OCc2ccccc2)c1)c1cccnc1)C(=O)C=C

$$$$

  CDD

  0  0  0  0  0  0            999 V2000
M  END
> <Molecule Name>
CVD-0004244

> <SMILES>
COc1ccc(NC(=O)C(N(C(=O)C=C)c2ccc(cc2)C(C)(C)C)c2cccnc2)cn1

$$$$

  CDD

  0  0  0  0  0  0            999 V2000
M  END
> <Molecule Name>
CVD-0004243

> <SMILES>
CC(C)(C)c1ccc(cc1)N(C(C(=O)NCc1ccncc1)c1cccnc1)C(=O)C=C

$$$$

  CDD

  0  0  0  0  0  0            999 V2000
M  END
> <Molecule Name>
CVD-0004242

> <SMILES>
CC(C)(C)c1ccc(cc1)N(C(C(=O)NC1CCCC1)c1cccnc1)C(=O)C=C

$$$$

  CDD

  0  0  0  0  0  0            999 V2000
M  END
> <Molecule Name>
CVD-0004241

> <SMILES>
CC(C)(C)c1ccc(cc1)N(C(C(=O)Nc1ccccc1-c1ccccc1)c1cccnc1)C(=O)C=C

$$$$

  CDD

  0  0  0  0  0  0            999 V2000
M  END
> <Molecule Name>
CVD-0004240

> <SMILES>
CC(C)(C)c1ccc(cc1)N(C(C(=O)Nc1ccc(Cl)cc1F)c1cccnc1)C(=O)C=C

$$$$

  CDD

  0  0  0  0  0  0            999 V2000
M  END
> <Molecule Name>
CVD-0004239

> <SMILES>
CC(C)(C)c1ccc(cc1)N(C(C(=O)NCC1CCCO1)c1cccnc1)C(=O)C=C

$$$$

  CDD

  0  0  0  0  0  0            999 V2000
M  END
> <Molecule Name>
CVD-0004238

> <SMILES>
CCC(C)NC(=O)C(N(C(=O)C=C)c1ccc(cc1)C(C)(C)C)c1cccnc1

$$$$

  CDD

  0  0  0  0  0  0            999 V2000
M  END
> <Molecule Name>
CVD-0004237

> <SMILES>
CCNC(=O)C(N(C(=O)C=C)c1ccc(cc1)C(C)(C)C)c1cccnc1

$$$$

  CDD

  0  0  0  0  0  0            999 V2000
M  END
> <Molecule Name>
CVD-0004236

> <SMILES>
CNC(=O)C(N(C(=O)C=C)c1ccc(cc1)C(C)(C)C)c1cccnc1

$$$$

  CDD

  0  0  0  0  0  0            999 V2000
M  END
> <Molecule Name>
CVD-0004235

> <SMILES>
CN(C)CCNC(=O)C(N(C(=O)C=C)c1ccc(cc1)C(C)(C)C)c1cccnc1

$$$$

  CDD

  0  0  0  0  0  0            999 V2000
M  END
> <Molecule Name>
CVD-0004234

> <SMILES>
CC(C)(C)c1ccc(cc1)N(C(C(=O)NCc1cccnc1)c1cccnc1)C(=O)C=C

$$$$

  CDD

  0  0  0  0  0  0            999 V2000
M  END
> <Molecule Name>
CVD-0004233

> <SMILES>
COCCCNC(=O)C(N(C(=O)C=C)c1ccc(cc1)C(C)(C)C)c1cccnc1

$$$$

  CDD

  0  0  0  0  0  0            999 V2000
M  END
> <Molecule Name>
CVD-0004232

> <SMILES>
COCCNC(=O)C(N(C(=O)C=C)c1ccc(cc1)C(C)(C)C)c1cccnc1

$$$$

  CDD

  0  0  0  0  0  0            999 V2000
M  END
> <Molecule Name>
CVD-0004231

> <SMILES>
CC(C)(C)c1ccc(cc1)N(C(C(=O)NCCN1CCOCC1)c1cccnc1)C(=O)C=C

$$$$

  CDD

  0  0  0  0  0  0            999 V2000
M  END
> <Molecule Name>
CVD-0004230

> <SMILES>
COC(=O)c1cccc(NC(=O)C(N(C(=O)C=C)c2ccc(cc2)C(C)(C)C)c2cccnc2)c1

$$$$

  CDD

  0  0  0  0  0  0            999 V2000
M  END
> <Molecule Name>
CVD-0004229

> <SMILES>
CC(C)(C)c1ccc(cc1)N(C(C(=O)NCc1ccc(F)cc1)c1cccnc1)C(=O)C=C

$$$$

  CDD

  0  0  0  0  0  0            999 V2000
M  END
> <Molecule Name>
CVD-0004228

> <SMILES>
CC(C)(C)c1ccc(cc1)N(C(C(=O)NCCN1CCCC1)c1cccnc1)C(=O)C=C

$$$$

  CDD

  0  0  0  0  0  0            999 V2000
M  END
> <Molecule Name>
CVD-0004227

> <SMILES>
CC(C)NC(=O)C(N(C(=O)C=C)c1ccc(cc1)C(C)(C)C)c1cccnc1

$$$$

  CDD

  0  0  0  0  0  0            999 V2000
M  END
> <Molecule Name>
CVD-0004226

> <SMILES>
CC(C)(C)c1ccc(cc1)N(C(C(=O)NCc1ccc(Cl)cc1)c1cccnc1)C(=O)C=C

$$$$

  CDD

  0  0  0  0  0  0            999 V2000
M  END
> <Molecule Name>
CVD-0004225

> <SMILES>
CCOC(=O)CCNC(=O)C(N(C(=O)C=C)c1ccc(cc1)C(C)(C)C)c1cccnc1

$$$$

  CDD

  0  0  0  0  0  0            999 V2000
M  END
> <Molecule Name>
CVD-0004224

> <SMILES>
CC(C)(C)c1ccc(cc1)N(C(C(=O)NCC1CCOC1)c1cccnc1)C(=O)C=C

$$$$

  CDD

  0  0  0  0  0  0            999 V2000
M  END
> <Molecule Name>
CVD-0004223

> <SMILES>
COc1ccccc1NC(=O)C(N(C(=O)C=C)c1ccc(cc1)C(C)(C)C)c1cccnc1

$$$$

  CDD

  0  0  0  0  0  0            999 V2000
M  END
> <Molecule Name>
CVD-0004222

> <SMILES>
CSCCNC(=O)C(N(C(=O)C=C)c1ccc(cc1)C(C)(C)C)c1cccnc1

$$$$

  CDD

  0  0  0  0  0  0            999 V2000
M  END
> <Molecule Name>
CVD-0004221

> <SMILES>
Cc1cc(F)ccc1NC(=O)C(N(C(=O)C=C)c1ccc(cc1)C(C)(C)C)c1cccnc1

$$$$

  CDD

  0  0  0  0  0  0            999 V2000
M  END
> <Molecule Name>
CVD-0004220

> <SMILES>
CC(C)(C)c1ccc(cc1)N(C(C(=O)Nc1cccc(c1)C(F)(F)F)c1cccnc1)C(=O)C=C

$$$$

  CDD

  0  0  0  0  0  0            999 V2000
M  END
> <Molecule Name>
CVD-0004219

> <SMILES>
CC(C)(C)c1ccc(cc1)N(C(C(=O)NC1CCC1)c1cccnc1)C(=O)C=C

$$$$

  CDD

  0  0  0  0  0  0            999 V2000
M  END
> <Molecule Name>
CVD-0004218

> <SMILES>
CC(C)(C)c1ccc(cc1)N(C(C(=O)Nc1ccc(OCc2ccccc2)cc1)c1cccnc1)C(=O)C=C

$$$$

  CDD

  0  0  0  0  0  0            999 V2000
M  END
> <Molecule Name>
CVD-0004217

> <SMILES>
COc1cccc(NC(=O)C(N(C(=O)C=C)c2ccc(cc2)C(C)(C)C)c2cccnc2)c1

$$$$

  CDD

  0  0  0  0  0  0            999 V2000
M  END
> <Molecule Name>
CVD-0004216

> <SMILES>
CC(C)(C)c1ccc(cc1)N(C(C(=O)Nc1ccc2CCCc2c1)c1cccnc1)C(=O)C=C

$$$$

  CDD

  0  0  0  0  0  0            999 V2000
M  END
> <Molecule Name>
CVD-0004215

> <SMILES>
Cn1ccc2cc(ccc12)N(C(C(=O)NC(C)(C)C)c1cccnc1)C(=O)C=C

$$$$

  CDD

  0  0  0  0  0  0            999 V2000
M  END
> <Molecule Name>
CVD-0004214

> <SMILES>
CC(C)(C)NC(=O)C(N(C(=O)C=C)c1cccc(c1)C#C)c1cccnc1

$$$$

  CDD

  0  0  0  0  0  0            999 V2000
M  END
> <Molecule Name>
CVD-0004213

> <SMILES>
CC(C)(C)NC(=O)C(N(C(=O)C=C)c1ccc2CCCC=Cc2c1)c1cccnc1

$$$$

  CDD

  0  0  0  0  0  0            999 V2000
M  END
> <Molecule Name>
CVD-0004212

> <SMILES>
Cc1cc(N)cc(c1)N(C(C(=O)NC(C)(C)C)c1cccnc1)C(=O)C=C

$$$$

  CDD

  0  0  0  0  0  0            999 V2000
M  END
> <Molecule Name>
CVD-0004211

> <SMILES>
CC(C)(C)NC(=O)C(N(C(=O)C=C)c1cccc(c1)-c1cncnc1)c1cccnc1

$$$$

  CDD

  0  0  0  0  0  0            999 V2000
M  END
> <Molecule Name>
CVD-0004210

> <SMILES>
CSCCCNC(=O)C(N(C(=O)C=C)c1ccc(cc1)C(C)(C)C)c1cccnc1

$$$$

  CDD

  0  0  0  0  0  0            999 V2000
M  END
> <Molecule Name>
CVD-0004209

> <SMILES>
COC(=O)C1CC(C1)NC(=O)C(N(C(=O)C=C)c1ccc(cc1)C(C)(C)C)c1cccnc1

$$$$

  CDD

  0  0  0  0  0  0            999 V2000
M  END
> <Molecule Name>
CVD-0004208

> <SMILES>
CC(=O)c1cccc(c1)S(=O)(=O)N1CCN(CC1)C(=O)CF

$$$$

  CDD

  0  0  0  0  0  0            999 V2000
M  END
> <Molecule Name>
CVD-0004207

> <SMILES>
Fc1cccc(c1)S(=O)(=O)N1CCN(CC1)C(=O)C1CN(C(=O)N(C1)c1cccnc1)c1ccccc1

$$$$

  CDD

  0  0  0  0  0  0            999 V2000
M  END
> <Molecule Name>
CVD-0004206

> <SMILES>
Fc1ccc(cc1)S(=O)(=O)N1CCN(CC1)C(=O)CCl

$$$$

  CDD

  0  0  0  0  0  0            999 V2000
M  END
> <Molecule Name>
CVD-0004205

> <SMILES>
Fc1cccc(c1)S(=O)(=O)N1CCN(CC1)C(=O)CN(C(=O)Nc1cccnc1)c1ccccc1

$$$$

  CDD

  0  0  0  0  0  0            999 V2000
M  END
> <Molecule Name>
CVD-0004204

> <SMILES>
CCC(=O)Nc1ccc(O)c(c1)C(=O)NC[C@@H](O)c1ccc2ccccc2c1

$$$$

  CDD

  0  0  0  0  0  0            999 V2000
M  END
> <Molecule Name>
CVD-0004203

> <SMILES>
CCC(=O)N[C@H](Cc1ccccc1)C(=O)NCCN(C)C

$$$$

  CDD

  0  0  0  0  0  0            999 V2000
M  END
> <Molecule Name>
CVD-0004202

> <SMILES>
CCC(=O)NCCC(=O)N(Cc1ccccc1)Cc1nc2ccccc2c(=O)[nH]1

$$$$

  CDD

  0  0  0  0  0  0            999 V2000
M  END
> <Molecule Name>
CVD-0004201

> <SMILES>
CCC(=O)NCC(=O)N(Cc1ccccc1)C[C@@]1(O)CN2CCC1CC2

$$$$

  CDD

  0  0  0  0  0  0            999 V2000
M  END
> <Molecule Name>
CVD-0004200

> <SMILES>
CCC(=O)NCc1ccccc1S(=O)(=O)NC

$$$$

  CDD

  0  0  0  0  0  0            999 V2000
M  END
> <Molecule Name>
CVD-0004199

> <SMILES>
CCC(=O)NCc1ccccc1S(=O)(=O)NC(C)(C)C

$$$$

  CDD

  0  0  0  0  0  0            999 V2000
M  END
> <Molecule Name>
CVD-0004198

> <SMILES>
CCC(=O)NCC(=O)N(C[C@@H]1CCCO1)Cc1ccccc1O

$$$$

  CDD

  0  0  0  0  0  0            999 V2000
M  END
> <Molecule Name>
CVD-0004197

> <SMILES>
O[C@H](CNC(=O)c1cc(NC(=O)C=C)ccc1O)c1ccc2ccccc2c1

$$$$

  CDD

  0  0  0  0  0  0            999 V2000
M  END
> <Molecule Name>
CVD-0004196

> <SMILES>
CN(C)CCNC(=O)[C@@H](Cc1ccccc1)NC(=O)C=C

$$$$

  CDD

  0  0  0  0  0  0            999 V2000
M  END
> <Molecule Name>
CVD-0004195

> <SMILES>
C=CC(=O)NCCC(=O)N(Cc1ccccc1)Cc1nc2ccccc2c(=O)[nH]1

$$$$

  CDD

  0  0  0  0  0  0            999 V2000
M  END
> <Molecule Name>
CVD-0004194

> <SMILES>
O[C@]1(CN(Cc2ccccc2)C(=O)CNC(=O)C=C)CN2CCC1CC2

$$$$

  CDD

  0  0  0  0  0  0            999 V2000
M  END
> <Molecule Name>
CVD-0004193

> <SMILES>
CNS(=O)(=O)c1ccccc1CNC(=O)C=C

$$$$

  CDD

  0  0  0  0  0  0            999 V2000
M  END
> <Molecule Name>
CVD-0004192

> <SMILES>
CC(C)(C)NS(=O)(=O)c1ccccc1CNC(=O)C=C

$$$$

  CDD

  0  0  0  0  0  0            999 V2000
M  END
> <Molecule Name>
CVD-0004191

> <SMILES>
Oc1ccccc1CN(C[C@@H]1CCCO1)C(=O)CNC(=O)C=C

$$$$

  CDD

  0  0  0  0  0  0            999 V2000
M  END
> <Molecule Name>
CVD-0004190

> <SMILES>
CCCSCC(=O)C(C#N)C(=O)Nc1ccccc1F

$$$$

  CDD

  0  0  0  0  0  0            999 V2000
M  END
> <Molecule Name>
CVD-0004189

> <SMILES>
Cc1cccc(NC(=O)C(C#N)C(=O)C2CC2)c1

$$$$

  CDD

  0  0  0  0  0  0            999 V2000
M  END
> <Molecule Name>
CVD-0004188

> <SMILES>
Cc1cccc(NC(=O)C(C#N)C(=O)C2CCC2)c1

$$$$

  CDD

  0  0  0  0  0  0            999 V2000
M  END
> <Molecule Name>
CVD-0004187

> <SMILES>
Cc1cccc(NC(=O)C(C#N)C(=O)C2CCCC2)c1

$$$$

  CDD

  0  0  0  0  0  0            999 V2000
M  END
> <Molecule Name>
CVD-0004186

> <SMILES>
Clc1cccc(NC(=O)C(C#N)C(=O)c2cccs2)c1

$$$$

  CDD

  0  0  0  0  0  0            999 V2000
M  END
> <Molecule Name>
CVD-0004185

> <SMILES>
Clc1cccc(c1)C(=O)C(C#N)C(=O)Nc1ccccc1

$$$$

  CDD

  0  0  0  0  0  0            999 V2000
M  END
> <Molecule Name>
CVD-0004184

> <SMILES>
O=C(Nc1ccccc1)C(C#N)C(=O)c1cccs1

$$$$

  CDD

  0  0  0  0  0  0            999 V2000
M  END
> <Molecule Name>
CVD-0004183

> <SMILES>
O\C(=C(\C#N)C(=O)Nc1ccc(F)cc1)c1ccc(Cl)cc1

$$$$

  CDD

  0  0  0  0  0  0            999 V2000
M  END
> <Molecule Name>
CVD-0004182

> <SMILES>
Cc1oncc1C(=O)Nc1ccc(cc1)C(F)(F)F

$$$$

  CDD

  0  0  0  0  0  0            999 V2000
M  END
> <Molecule Name>
CVD-0004181

> <SMILES>
C\C(O)=C(/C#N)C(=O)Nc1ccc(cc1)S(F)(F)(F)(F)F

$$$$

  CDD

  0  0  0  0  0  0            999 V2000
M  END
> <Molecule Name>
CVD-0004180

> <SMILES>
C\C(O)=C(/C#N)C(=O)Nc1ccc(cc1)C(F)(F)F

$$$$

  CDD

  0  0  0  0  0  0            999 V2000
M  END
> <Molecule Name>
CVD-0004179

> <SMILES>
O\C(CCl)=C(\C#N)C(=O)NCc1ccccc1

$$$$

  CDD

  0  0  0  0  0  0            999 V2000
M  END
> <Molecule Name>
CVD-0004178

> <SMILES>
CCC(CC)C(=O)C(C#N)C(=O)Nc1ccc(F)cc1

$$$$

  CDD

  0  0  0  0  0  0            999 V2000
M  END
> <Molecule Name>
CVD-0004177

> <SMILES>
CC(C)CC(=O)C(C#N)C(=O)Nc1cccc(C)c1

$$$$

  CDD

  0  0  0  0  0  0            999 V2000
M  END
> <Molecule Name>
CVD-0004176

> <SMILES>
CC(C)(C)CC(=O)C(C#N)C(=O)Nc1ccccc1

$$$$

  CDD

  0  0  0  0  0  0            999 V2000
M  END
> <Molecule Name>
CVD-0004175

> <SMILES>
CC(C)CC(=O)C(C#N)C(=O)Nc1ccc(C)cc1

$$$$

  CDD

  0  0  0  0  0  0            999 V2000
M  END
> <Molecule Name>
CVD-0004174

> <SMILES>
CCCSCC(=O)C(C#N)C(=O)Nc1ccc(F)cc1F

$$$$

  CDD

  0  0  0  0  0  0            999 V2000
M  END
> <Molecule Name>
CVD-0004173

> <SMILES>
CC(C)(C)C(=O)C(C#N)C(=O)Nc1ccc(Cl)cc1

$$$$

  CDD

  0  0  0  0  0  0            999 V2000
M  END
> <Molecule Name>
CVD-0004172

> <SMILES>
COC(=O)C(N1CCC(SC(C)=O)\C(C1)=C/C(O)=O)c1ccccc1Cl

$$$$

  CDD

  0  0  0  0  0  0            999 V2000
M  END
> <Molecule Name>
CVD-0004171

> <SMILES>
COC(=O)C(N1CCC(S)\C(C1)=C/C(O)=O)c1ccccc1Cl

$$$$

  CDD

  0  0  0  0  0  0            999 V2000
M  END
> <Molecule Name>
CVD-0004170

> <SMILES>
COC(=O)C(N1CCC2SC(=O)C=C2C1)c1ccccc1Cl

$$$$

  CDD

  0  0  0  0  0  0            999 V2000
M  END
> <Molecule Name>
CVD-0004169

> <SMILES>
COC(=O)C(N1CCc2sccc2C1)c1ccccc1Cl

$$$$

  CDD

  0  0  0  0  0  0            999 V2000
M  END
> <Molecule Name>
CVD-0004168

> <SMILES>
OC[C@H]1O[C@H](S[Au])[C@H](O)[C@@H](O)[C@@H]1O

$$$$

  CDD

  0  0  0  0  0  0            999 V2000
M  END
> <Molecule Name>
CVD-0004167

> <SMILES>
CCP(CC)(CC)=[Au]S[C@@H]1O[C@H](COC(C)=O)[C@@H](OC(C)=O)[C@H](OC(C)=O)[C@H]1OC(C)=O

$$$$

  CDD

  0  0  0  0  0  0            999 V2000
M  END
> <Molecule Name>
CVD-0004166

> <SMILES>
CC(C)(C)N1C=CN(C1[Au]Cl)C(C)(C)C

$$$$

  CDD

  0  0  0  0  0  0            999 V2000
M  END
> <Molecule Name>
CVD-0004165

> <SMILES>
[Na]OC(=O)CC(CS[Au])C(=O)O[Na]

$$$$

  CDD

  0  0  0  0  0  0            999 V2000
M  END
> <Molecule Name>
CVD-0004164

> <SMILES>
CC(=O)N[C@@H](Cc1ccccc1)C(=O)N[C@@H](CC1CCNC1=O)C(=O)Nc1cncc2ccccc12

$$$$

  CDD

  0  0  0  0  0  0            999 V2000
M  END
> <Molecule Name>
CVD-0004163

> <SMILES>
O=C(Nc1cccnc1)C1=CS(=O)(=O)CCC1

$$$$

  CDD

  0  0  0  0  0  0            999 V2000
M  END
> <Molecule Name>
CVD-0004162

> <SMILES>
O=C(CCn1ccnc1)N(C1CS(=O)(=O)C=C1)c1ccccc1

$$$$

  CDD

  0  0  0  0  0  0            999 V2000
M  END
> <Molecule Name>
CVD-0004161

> <SMILES>
Cc1nccn1CC(=O)N(C1CS(=O)(=O)C=C1)c1ccccc1

$$$$

  CDD

  0  0  0  0  0  0            999 V2000
M  END
> <Molecule Name>
CVD-0004160

> <SMILES>
Fc1ccc(cc1)N(CCC#N)C(=O)CN1CCCCC(=O)C1=O

$$$$

  CDD

  0  0  0  0  0  0            999 V2000
M  END
> <Molecule Name>
CVD-0004159

> <SMILES>
O=C(CN1CCCCC(=O)C1=O)N1CCSc2ccccc12

$$$$

  CDD

  0  0  0  0  0  0            999 V2000
M  END
> <Molecule Name>
CVD-0004158

> <SMILES>
CCn1cc(C#N)c(=O)n(CC(=O)C(\C#N)=C2/Nc3ccccc3S2)c1=O

$$$$

  CDD

  0  0  0  0  0  0            999 V2000
M  END
> <Molecule Name>
CVD-0004157

> <SMILES>
Fc1cccc(c1)-n1ccc(=O)c(n1)C(=O)C(C#N)C(=O)Nc1ccccc1

$$$$

  CDD

  0  0  0  0  0  0            999 V2000
M  END
> <Molecule Name>
CVD-0004156

> <SMILES>
Cc1ccc(cc1)S(=O)(=O)NC(=O)Cn1ccccc1=O

$$$$

  CDD

  0  0  0  0  0  0            999 V2000
M  END
> <Molecule Name>
CVD-0004155

> <SMILES>
Cc1ccc(c(C)c1)S(=O)(=O)N1CCN(CC1)C(=O)C=C

$$$$

  CDD

  0  0  0  0  0  0            999 V2000
M  END
> <Molecule Name>
CVD-0004154

> <SMILES>
O=C(NCc1ncco1)Nc1cncc(NC(=O)c2ccncc2)c1

$$$$

  CDD

  0  0  0  0  0  0            999 V2000
M  END
> <Molecule Name>
CVD-0004153

> <SMILES>
CC(C)c1ccc(cc1NC(=O)Nc1cccnc1)C(N)=O

$$$$

  CDD

  0  0  0  0  0  0            999 V2000
M  END
> <Molecule Name>
CVD-0004152

> <SMILES>
COCc1cncc(NC(=O)C(C)(C)C)c1

$$$$

  CDD

  0  0  0  0  0  0            999 V2000
M  END
> <Molecule Name>
CVD-0004151

> <SMILES>
CC(=O)N1CCN(C[C@@H]1c1cccnc1\C(C)=N\O)C(=O)CCl

$$$$

  CDD

  0  0  0  0  0  0            999 V2000
M  END
> <Molecule Name>
CVD-0004150

> <SMILES>
ClCC(=O)N(c1ccc(nc1)C1CCCCC1)c1ccc2ncccc2c1

$$$$

  CDD

  0  0  0  0  0  0            999 V2000
M  END
> <Molecule Name>
CVD-0004149

> <SMILES>
O=C(N(c1ncc(Oc2ccccc2)[nH]1)c1cccnc1)c1cocn1

$$$$

  CDD

  0  0  0  0  0  0            999 V2000
M  END
> <Molecule Name>
CVD-0004148

> <SMILES>
O=C(N(c1cnc([nH]1)-c1ccc2ncccc2c1)c1cccnc1)n1ccnc1

$$$$

  CDD

  0  0  0  0  0  0            999 V2000
M  END
> <Molecule Name>
CVD-0004147

> <SMILES>
CC(=O)Nc1cnc([nH]1)N(C(=O)Cc1ccccc1)c1cccnc1

$$$$

  CDD

  0  0  0  0  0  0            999 V2000
M  END
> <Molecule Name>
CVD-0004146

> <SMILES>
ClCC(=O)N1CCN(CC1)C(=O)Cc1ccc2cccc(-c3ccncc3)c2n1

$$$$

  CDD

  0  0  0  0  0  0            999 V2000
M  END
> <Molecule Name>
CVD-0004145

> <SMILES>
NC(=O)Nc1cncc(NC(=O)Nc2cc(ccc2OC(N)=O)-n2nccn2)c1

$$$$

  CDD

  0  0  0  0  0  0            999 V2000
M  END
> <Molecule Name>
CVD-0004144

> <SMILES>
NS(=O)(=O)c1cncc(NC(=O)N(c2ccccc2)c2ccc3cnccc3c2)c1

$$$$

  CDD

  0  0  0  0  0  0            999 V2000
M  END
> <Molecule Name>
CVD-0004143

> <SMILES>
OC(=O)c1ccc2N(CCCc2c1)C(=O)C=C

$$$$

  CDD

  0  0  0  0  0  0            999 V2000
M  END
> <Molecule Name>
CVD-0004142

> <SMILES>
CC(C)C[C@@H]1N(CCCNC1=O)C(=O)C=C

$$$$

  CDD

  0  0  0  0  0  0            999 V2000
M  END
> <Molecule Name>
CVD-0004141

> <SMILES>
CC1(C)C(CC1OCc1ccccc1)NC(=O)C=C

$$$$

  CDD

  0  0  0  0  0  0            999 V2000
M  END
> <Molecule Name>
CVD-0004140

> <SMILES>
Fc1cc(NC(=O)C=C)cc(c1)N1CCCC1

$$$$

  CDD

  0  0  0  0  0  0            999 V2000
M  END
> <Molecule Name>
CVD-0004139

> <SMILES>
Cc1nnc(o1)N1C[C@@H](F)C[C@H]1CNC(=O)C=C

$$$$

  CDD

  0  0  0  0  0  0            999 V2000
M  END
> <Molecule Name>
CVD-0004138

> <SMILES>
C=CC(=O)Nc1cccc(n1)-c1ccc2OCCOc2c1

$$$$

  CDD

  0  0  0  0  0  0            999 V2000
M  END
> <Molecule Name>
CVD-0004137

> <SMILES>
NC(=O)c1ccc2N(CCCc2c1)C(=O)C=C

$$$$

  CDD

  0  0  0  0  0  0            999 V2000
M  END
> <Molecule Name>
CVD-0004136

> <SMILES>
CCOC(=O)C(=C\c1cccc(OC)c1)\C(=O)c1ccccc1

$$$$

  CDD

  0  0  0  0  0  0            999 V2000
M  END
> <Molecule Name>
CVD-0004135

> <SMILES>
C=CC(=O)N1CCCc2cc(ccc12)C(=O)NCC#C

$$$$

  CDD

  0  0  0  0  0  0            999 V2000
M  END
> <Molecule Name>
CVD-0004134

> <SMILES>
NCCNC(=O)N1CCN(C(=O)C=C)c2ccccc12

$$$$

  CDD

  0  0  0  0  0  0            999 V2000
M  END
> <Molecule Name>
CVD-0004133

> <SMILES>
C=CC(=O)N1CCCc2cc(ccc12)C(=O)NCc1ccccc1

$$$$

  CDD

  0  0  0  0  0  0            999 V2000
M  END
> <Molecule Name>
CVD-0004132

> <SMILES>
C=CC(=O)N1CCN(C(=O)NCC#C)c2ccccc12

$$$$

  CDD

  0  0  0  0  0  0            999 V2000
M  END
> <Molecule Name>
CVD-0004131

> <SMILES>
COC(=O)N1CCN(C(=O)C=C)c2ccccc12

$$$$

  CDD

  0  0  0  0  0  0            999 V2000
M  END
> <Molecule Name>
CVD-0004130

> <SMILES>
CCN1CCN(C(=O)C=C)c2ccc(cc12)C(=O)NCc1ccc(OC)cc1

$$$$

  CDD

  0  0  0  0  0  0            999 V2000
M  END
> <Molecule Name>
CVD-0004129

> <SMILES>
[O-][N+](=O)c1ccccc1N1CCN(CC1)C(=O)C=C

$$$$

  CDD

  0  0  0  0  0  0            999 V2000
M  END
> <Molecule Name>
CVD-0004128

> <SMILES>
COC(=O)c1ccc2N(CCCc2c1)C(=O)C=C

$$$$

  CDD

  0  0  0  0  0  0            999 V2000
M  END
> <Molecule Name>
CVD-0004127

> <SMILES>
CC(=O)N1CCC(CC1)NS(=O)(=O)C=C

$$$$

  CDD

  0  0  0  0  0  0            999 V2000
M  END
> <Molecule Name>
CVD-0004126

> <SMILES>
C=CC(=O)NCC1CN2CCCCC2CO1

$$$$

  CDD

  0  0  0  0  0  0            999 V2000
M  END
> <Molecule Name>
CVD-0004125

> <SMILES>
C=CC(=O)N1CCNC(=O)[C@@H]1Cc1nc2ccccc2o1

$$$$

  CDD

  0  0  0  0  0  0            999 V2000
M  END
> <Molecule Name>
CVD-0004124

> <SMILES>
C=CC(=O)N[C@H]1CCc2ncsc2C1

$$$$

  CDD

  0  0  0  0  0  0            999 V2000
M  END
> <Molecule Name>
CVD-0004123

> <SMILES>
C[C@H](N(C)C(=O)C=C)c1ccccc1N1CCCS1(=O)=O

$$$$

  CDD

  0  0  0  0  0  0            999 V2000
M  END
> <Molecule Name>
CVD-0004122

> <SMILES>
C=CC(=O)Nc1cc(nn1-c1ncccn1)C1CC1

$$$$

  CDD

  0  0  0  0  0  0            999 V2000
M  END
> <Molecule Name>
CVD-0004121

> <SMILES>
C=CC(=O)NCCc1cn2CCSc2n1

$$$$

  CDD

  0  0  0  0  0  0            999 V2000
M  END
> <Molecule Name>
CVD-0004120

> <SMILES>
C=CC(=O)NC1C(CCc2ccccc12)n1ccnc1

$$$$

  CDD

  0  0  0  0  0  0            999 V2000
M  END
> <Molecule Name>
CVD-0004119

> <SMILES>
CN1CCN(C(=O)C=C)c2cccnc12

$$$$

  CDD

  0  0  0  0  0  0            999 V2000
M  END
> <Molecule Name>
CVD-0004118

> <SMILES>
Cn1ccnc1[C@@H](NC(=O)C=C)C1CCOCC1

$$$$

  CDD

  0  0  0  0  0  0            999 V2000
M  END
> <Molecule Name>
CVD-0004117

> <SMILES>
O=C(\C=C\c1ccccc1)c1ccccc1

$$$$

  CDD

  0  0  0  0  0  0            999 V2000
M  END
> <Molecule Name>
CVD-0004116

> <SMILES>
[O-][N+](=O)c1ccccc1\C=C\C(=O)c1ccccc1

$$$$

  CDD

  0  0  0  0  0  0            999 V2000
M  END
> <Molecule Name>
CVD-0004115

> <SMILES>
[O-][N+](=O)c1cccc(\C=C\C(=O)c2ccccc2)c1

$$$$

  CDD

  0  0  0  0  0  0            999 V2000
M  END
> <Molecule Name>
CVD-0004114

> <SMILES>
Clc1ccc(NC(=O)C=C)cc1C#N

$$$$

  CDD

  0  0  0  0  0  0            999 V2000
M  END
> <Molecule Name>
CVD-0004113

> <SMILES>
ClCC(=O)N(c1cccnc1)[C@]1(CCCOC1)Oc1ccccc1

$$$$

  CDD

  0  0  0  0  0  0            999 V2000
M  END
> <Molecule Name>
CVD-0004112

> <SMILES>
O=C(N(c1cnc([nH]1)-c1ccsn1)c1cccnc1)c1cocn1

$$$$

  CDD

  0  0  0  0  0  0            999 V2000
M  END
> <Molecule Name>
CVD-0004111

> <SMILES>
CC(C)(C)c1cccc(c1)N(C(=O)Nc1cccnc1)c1ccc2cnccc2c1

$$$$

  CDD

  0  0  0  0  0  0            999 V2000
M  END
> <Molecule Name>
CVD-0004110

> <SMILES>
CC#Cc1ncc([nH]1)N(C(=O)CC(C)C)c1cccnc1

$$$$

  CDD

  0  0  0  0  0  0            999 V2000
M  END
> <Molecule Name>
CVD-0004109

> <SMILES>
NC(=O)c1ccc2ccc(CC(=O)N3CCN(CC3)C(=O)CCl)nc2c1

$$$$

  CDD

  0  0  0  0  0  0            999 V2000
M  END
> <Molecule Name>
CVD-0004108

> <SMILES>
ClCC(=O)N(c1cccnc1)[C@]1(CCCOC1)c1cnoc1

$$$$

  CDD

  0  0  0  0  0  0            999 V2000
M  END
> <Molecule Name>
CVD-0004107

> <SMILES>
CC(=O)Nc1ncn(n1)N(C(=O)Oc1ccccc1)c1cccnc1

$$$$

  CDD

  0  0  0  0  0  0            999 V2000
M  END
> <Molecule Name>
CVD-0004106

> <SMILES>
FC(F)Oc1cc(cc2ccncc12)N(C(=O)Nc1cccnc1)c1ccccc1

$$$$

  CDD

  0  0  0  0  0  0            999 V2000
M  END
> <Molecule Name>
CVD-0004105

> <SMILES>
CNS(=O)(=O)c1cncc(NC(=O)N(C2CCCCC2)c2ccccc2)c1

$$$$

  CDD

  0  0  0  0  0  0            999 V2000
M  END
> <Molecule Name>
CVD-0004104

> <SMILES>
CNC(=O)Nc1cncc(c1)N(CC1CC1)C(=O)c1ccncc1

$$$$

  CDD

  0  0  0  0  0  0            999 V2000
M  END
> <Molecule Name>
CVD-0004103

> <SMILES>
CCP(CC)(CC)=[Au]C1N(C=CN1C(C)(C)C)C(C)(C)C

$$$$

  CDD

  0  0  0  0  0  0            999 V2000
M  END
> <Molecule Name>
CVD-0004102

> <SMILES>
CN(C)c1ccc(cc1)C(=O)N[C@@H](Cc1ccccc1)C(=O)Nc1ccc(cc1Cl)[N+]([O-])=O

$$$$

  CDD

  0  0  0  0  0  0            999 V2000
M  END
> <Molecule Name>
CVD-0004101

> <SMILES>
CC(=O)N1CCN(CC1)S(=O)(=O)c1cc(F)cc(F)c1

$$$$

  CDD

  0  0  0  0  0  0            999 V2000
M  END
> <Molecule Name>
CVD-0004100

> <SMILES>
CC(=O)N1CCN(CC1)S(=O)(=O)c1ccc(NC(=O)Nc2cccnc2)cc1

$$$$

  CDD

  0  0  0  0  0  0            999 V2000
M  END
> <Molecule Name>
CVD-0004099

> <SMILES>
Fc1ccc(cc1F)S(=O)(=O)N1CCN(CC1)C(=O)CCl

$$$$

  CDD

  0  0  0  0  0  0            999 V2000
M  END
> <Molecule Name>
CVD-0004098

> <SMILES>
Fc1cccc(c1)S(=O)(=O)N1CCN(CC1)C(=O)Cc1cncc(NC(=O)Nc2cccc(Cl)c2)c1

$$$$

  CDD

  0  0  0  0  0  0            999 V2000
M  END
> <Molecule Name>
CVD-0004097

> <SMILES>
C[C@@H]1CS\C(=N/NC(=O)C(=O)C(NC(=O)C2CCCCCC2)C2CCOCC2)N1C

$$$$

  CDD

  0  0  0  0  0  0            999 V2000
M  END
> <Molecule Name>
CVD-0004096

> <SMILES>
CC(=O)Oc1ccccc1C(=O)Nc1ncc(s1)[N+]([O-])=O

$$$$

  CDD

  0  0  0  0  0  0            999 V2000
M  END
> <Molecule Name>
CVD-0004095

> <SMILES>
Nc1ncc(c(N)n1)S(=O)(=O)c1ccc(Cl)cc1

$$$$

  CDD

  0  0  0  0  0  0            999 V2000
M  END
> <Molecule Name>
CVD-0004094

> <SMILES>
Cc1cc(c(Cl)cc1Cl)S(=O)(=O)c1c(cc(cc1[N+]([O-])=O)C(F)(F)F)[N+]([O-])=O

$$$$

  CDD

  0  0  0  0  0  0            999 V2000
M  END
> <Molecule Name>
CVD-0004093

> <SMILES>
Cc1ccc2nc(sc2c1S(O)(=O)=O)-c1ccc(N)cc1

$$$$

  CDD

  0  0  0  0  0  0            999 V2000
M  END
> <Molecule Name>
CVD-0004092

> <SMILES>
CN(C(=O)Cc1noc2ccccc12)c1ccc(NC(=O)OC(C)(C)C)cc1

$$$$

  CDD

  0  0  0  0  0  0            999 V2000
M  END
> <Molecule Name>
CVD-0004091

> <SMILES>
CN(Cc1ccc(OCc2cccs2)cc1)C(=O)Cn1nnc2ccccc12

$$$$

  CDD

  0  0  0  0  0  0            999 V2000
M  END
> <Molecule Name>
CVD-0004090

> <SMILES>
CN(C(=O)Cn1nnc2ccccc12)c1ccc(Oc2ccc(cn2)C(F)(F)F)cc1

$$$$

  CDD

  0  0  0  0  0  0            999 V2000
M  END
> <Molecule Name>
CVD-0004089

> <SMILES>
COc1cc(OC)cc(Oc2ccc(CNC(=O)Cn3nnc4ccccc34)cc2)c1

$$$$

  CDD

  0  0  0  0  0  0            999 V2000
M  END
> <Molecule Name>
CVD-0004088

> <SMILES>
COc1ccccc1C(CNC(=O)Cn1nnc2ccccc12)NC(=O)CNc1nccs1

$$$$

  CDD

  0  0  0  0  0  0            999 V2000
M  END
> <Molecule Name>
CVD-0004087

> <SMILES>
CCOCC(=O)NCc1ccc(CNC(=O)Cn2nnc3ccccc23)cc1

$$$$

  CDD

  0  0  0  0  0  0            999 V2000
M  END
> <Molecule Name>
CVD-0004086

> <SMILES>
Fc1ccc(cc1)N(Cc1cccs1)C(=O)NCc1noc2ccccc12

$$$$

  CDD

  0  0  0  0  0  0            999 V2000
M  END
> <Molecule Name>
CVD-0004085

> <SMILES>
CCN(Cc1cccc(c1)-c1ccncc1)C(=O)Cc1noc2ccccc12

$$$$

  CDD

  0  0  0  0  0  0            999 V2000
M  END
> <Molecule Name>
CVD-0004084

> <SMILES>
CN(Cc1nnc2ccccn12)C(=O)N(Cc1cccs1)c1ccc(Br)cc1

$$$$

  CDD

  0  0  0  0  0  0            999 V2000
M  END
> <Molecule Name>
CVD-0004083

> <SMILES>
Fc1cc(CNC(=O)Cn2nnc3ccccc23)ccc1Oc1cccnc1

$$$$

  CDD

  0  0  0  0  0  0            999 V2000
M  END
> <Molecule Name>
CVD-0004082

> <SMILES>
CCN(Cc1cccc(c1)-c1ccncc1)C(=O)Cn1nnc2ccccc12

$$$$

  CDD

  0  0  0  0  0  0            999 V2000
M  END
> <Molecule Name>
CVD-0004081

> <SMILES>
CN1C2=C(C3=CC=CC=C13)C(=O)C(CN1C=CN=C1C)CC2

$$$$

  CDD

  0  0  0  0  0  0            999 V2000
M  END
> <Molecule Name>
CVD-0004080

> <SMILES>
OCC1OC(CC1O)N1C=C(F)C(=O)NC1=O

$$$$

  CDD

  0  0  0  0  0  0            999 V2000
M  END
> <Molecule Name>
CVD-0004079

> <SMILES>
CS(C)=O

$$$$

  CDD

  0  0  0  0  0  0            999 V2000
M  END
> <Molecule Name>
CVD-0004078

> <SMILES>
Cc1ccn2c(c(nc2c1)-c1ccc(F)cc1)-c1ccnc2[nH]ccc12

$$$$

  CDD

  0  0  0  0  0  0            999 V2000
M  END
> <Molecule Name>
CVD-0004077

> <SMILES>
Cc1ccn2c(c(nc2c1)-c1ccc(F)cc1)-c1cccnc1

$$$$

  CDD

  0  0  0  0  0  0            999 V2000
M  END
> <Molecule Name>
CVD-0004076

> <SMILES>
Cc1ccn2c(c(nc2c1)-c1ccc(F)cc1)-c1ccncc1

$$$$

  CDD

  0  0  0  0  0  0            999 V2000
M  END
> <Molecule Name>
CVD-0004075

> <SMILES>
Cc1ccc2c(c(nn2n1)-c1ccc(F)cc1)-c1ccnc2[nH]ccc12

$$$$

  CDD

  0  0  0  0  0  0            999 V2000
M  END
> <Molecule Name>
CVD-0004074

> <SMILES>
Cc1ccc2c(c(nn2n1)-c1ccc(F)cc1)-c1cccnc1

$$$$

  CDD

  0  0  0  0  0  0            999 V2000
M  END
> <Molecule Name>
CVD-0004073

> <SMILES>
Cc1ccnc2[nH]c(Cc3ccc4ccccc4c3)nc12

$$$$

  CDD

  0  0  0  0  0  0            999 V2000
M  END
> <Molecule Name>
CVD-0004072

> <SMILES>
COc1ccnc(NC(=O)Cc2ccc3ccccc3c2)c1

$$$$

  CDD

  0  0  0  0  0  0            999 V2000
M  END
> <Molecule Name>
CVD-0004071

> <SMILES>
FC(F)(F)c1ccnc(NC(=O)Cc2ccc3ccccc3c2)c1

$$$$

  CDD

  0  0  0  0  0  0            999 V2000
M  END
> <Molecule Name>
CVD-0004070

> <SMILES>
Cc1ccnc(NC(=O)Cc2ccc3ccccc3c2)c1

$$$$

  CDD

  0  0  0  0  0  0            999 V2000
M  END
> <Molecule Name>
CVD-0004069

> <SMILES>
Cc1cn2c(c(nc2s1)-c1ccc(F)cc1)-c1ccnc2[nH]ccc12

$$$$

  CDD

  0  0  0  0  0  0            999 V2000
M  END
> <Molecule Name>
CVD-0004068

> <SMILES>
Cc1cn2c(c(nc2s1)-c1ccc(F)cc1)-c1cccnc1

$$$$

  CDD

  0  0  0  0  0  0            999 V2000
M  END
> <Molecule Name>
CVD-0004067

> <SMILES>
Cc1cn2c(c(nc2s1)-c1ccc(F)cc1)-c1ccncc1

$$$$

  CDD

  0  0  0  0  0  0            999 V2000
M  END
> <Molecule Name>
CVD-0004066

> <SMILES>
Cc1ccn2c(-c3cnn(C)c3)c(nc2n1)-c1ccc(F)cc1

$$$$

  CDD

  0  0  0  0  0  0            999 V2000
M  END
> <Molecule Name>
CVD-0004065

> <SMILES>
Cc1ccn2c(-c3ccnn3C)c(nc2n1)-c1ccc(F)cc1

$$$$

  CDD

  0  0  0  0  0  0            999 V2000
M  END
> <Molecule Name>
CVD-0004064

> <SMILES>
Cc1cnc2n(c(nc2c1)-c1ccc(F)cc1)-c1ccncc1

$$$$

  CDD

  0  0  0  0  0  0            999 V2000
M  END
> <Molecule Name>
CVD-0004063

> <SMILES>
Cc1ccn2c(c(nc2n1)-c1ccc(F)cc1)-c1ccnc2[nH]ccc12

$$$$

  CDD

  0  0  0  0  0  0            999 V2000
M  END
> <Molecule Name>
CVD-0004062

> <SMILES>
Cc1ccn2c(c(nc2n1)-c1ccc(F)cc1)-c1cccnc1

$$$$

  CDD

  0  0  0  0  0  0            999 V2000
M  END
> <Molecule Name>
CVD-0004061

> <SMILES>
Cc1ccn2c(c(nc2n1)-c1ccc(F)cc1)-c1ccncc1

$$$$

  CDD

  0  0  0  0  0  0            999 V2000
M  END
> <Molecule Name>
CVD-0004060

> <SMILES>
Cc1cc([nH]n1)-c1c(nn2nc(C)ccc12)-c1ccc(F)cc1

$$$$

  CDD

  0  0  0  0  0  0            999 V2000
M  END
> <Molecule Name>
CVD-0004059

> <SMILES>
Cc1ccc2c(c(nn2n1)-c1ccc(F)cc1)-c1cnc(N)nc1

$$$$

  CDD

  0  0  0  0  0  0            999 V2000
M  END
> <Molecule Name>
CVD-0004058

> <SMILES>
Cc1ccc2c(c(nn2n1)-c1ccc(F)cc1)-c1ccnc(N)c1

$$$$

  CDD

  0  0  0  0  0  0            999 V2000
M  END
> <Molecule Name>
CVD-0004057

> <SMILES>
Cc1ccc2c(-c3cnn(C)c3)c(nn2n1)-c1ccc(F)cc1

$$$$

  CDD

  0  0  0  0  0  0            999 V2000
M  END
> <Molecule Name>
CVD-0004056

> <SMILES>
Cc1ccc2c(-c3ccnn3C)c(nn2n1)-c1ccc(F)cc1

$$$$

  CDD

  0  0  0  0  0  0            999 V2000
M  END
> <Molecule Name>
CVD-0004055

> <SMILES>
Cc1ccc2c(c(nn2n1)-c1ccc(F)cc1)-c1ccc2cn[nH]c2c1

$$$$

  CDD

  0  0  0  0  0  0            999 V2000
M  END
> <Molecule Name>
CVD-0004054

> <SMILES>
Cc1ccc2c(c(nn2n1)-c1ccc(F)cc1)-c1ccc2[nH]ncc2c1

$$$$

  CDD

  0  0  0  0  0  0            999 V2000
M  END
> <Molecule Name>
CVD-0004053

> <SMILES>
Cc1ccc2n(c(nc2c1)-c1ccc(F)cc1)-c1ccncc1

$$$$

  CDD

  0  0  0  0  0  0            999 V2000
M  END
> <Molecule Name>
CVD-0004052

> <SMILES>
Cc1ccc2c(c(nn2n1)-c1ccc(F)cc1)-c1cccc2[nH]ncc12

$$$$

  CDD

  0  0  0  0  0  0            999 V2000
M  END
> <Molecule Name>
CVD-0004051

> <SMILES>
Cc1cc([nH]n1)-c1c(nn2cc(C)cnc12)-c1ccc(F)cc1

$$$$

  CDD

  0  0  0  0  0  0            999 V2000
M  END
> <Molecule Name>
CVD-0004050

> <SMILES>
Cc1cnc2c(c(nn2c1)-c1ccc(F)cc1)-c1cnc(N)nc1

$$$$

  CDD

  0  0  0  0  0  0            999 V2000
M  END
> <Molecule Name>
CVD-0004049

> <SMILES>
Cc1cnc2c(c(nn2c1)-c1ccc(F)cc1)-c1ccnc(N)c1

$$$$

  CDD

  0  0  0  0  0  0            999 V2000
M  END
> <Molecule Name>
CVD-0004048

> <SMILES>
Cc1cnc2c(-c3cnn(C)c3)c(nn2c1)-c1ccc(F)cc1

$$$$

  CDD

  0  0  0  0  0  0            999 V2000
M  END
> <Molecule Name>
CVD-0004047

> <SMILES>
Cc1cnc2c(-c3ccnn3C)c(nn2c1)-c1ccc(F)cc1

$$$$

  CDD

  0  0  0  0  0  0            999 V2000
M  END
> <Molecule Name>
CVD-0004046

> <SMILES>
Cc1cnc2c(c(nn2c1)-c1ccc(F)cc1)-c1ccc2cn[nH]c2c1

$$$$

  CDD

  0  0  0  0  0  0            999 V2000
M  END
> <Molecule Name>
CVD-0004045

> <SMILES>
Cc1cnc2c(c(nn2c1)-c1ccc(F)cc1)-c1ccc2[nH]ncc2c1

$$$$

  CDD

  0  0  0  0  0  0            999 V2000
M  END
> <Molecule Name>
CVD-0004044

> <SMILES>
Cc1cnc2c(c(nn2c1)-c1ccc(F)cc1)-c1cccc2[nH]ncc12

$$$$

  CDD

  0  0  0  0  0  0            999 V2000
M  END
> <Molecule Name>
CVD-0004043

> <SMILES>
Cc1cc([nH]n1)-c1c(nc2cc(C)ccn12)-c1ccc(F)cc1

$$$$

  CDD

  0  0  0  0  0  0            999 V2000
M  END
> <Molecule Name>
CVD-0004042

> <SMILES>
Cc1ccc2c(c(nn2n1)-c1ccc(F)cc1)-c1ccncc1

$$$$

  CDD

  0  0  0  0  0  0            999 V2000
M  END
> <Molecule Name>
CVD-0004041

> <SMILES>
Cc1ccn2c(c(nc2c1)-c1ccc(F)cc1)-c1cnc(N)nc1

$$$$

  CDD

  0  0  0  0  0  0            999 V2000
M  END
> <Molecule Name>
CVD-0004040

> <SMILES>
Cc1ccn2c(-c3cnn(C)c3)c(nc2c1)-c1ccc(F)cc1

$$$$

  CDD

  0  0  0  0  0  0            999 V2000
M  END
> <Molecule Name>
CVD-0004039

> <SMILES>
Cc1ccn2c(-c3ccnn3C)c(nc2c1)-c1ccc(F)cc1

$$$$

  CDD

  0  0  0  0  0  0            999 V2000
M  END
> <Molecule Name>
CVD-0004038

> <SMILES>
Cc1ccn2c(c(nc2c1)-c1ccc(F)cc1)-c1ccc2cn[nH]c2c1

$$$$

  CDD

  0  0  0  0  0  0            999 V2000
M  END
> <Molecule Name>
CVD-0004037

> <SMILES>
Cc1ccn2c(c(nc2c1)-c1ccc(F)cc1)-c1cccc2[nH]ncc12

$$$$

  CDD

  0  0  0  0  0  0            999 V2000
M  END
> <Molecule Name>
CVD-0004036

> <SMILES>
Cc1ccn2c(c(nc2c1)-c1ccc(F)cc1)-c1ccc2[nH]ncc2c1

$$$$

  CDD

  0  0  0  0  0  0            999 V2000
M  END
> <Molecule Name>
CVD-0004035

> <SMILES>
Cc1ccn2c(c(nc2c1)-c1ccc(F)cc1)-c1ccnc(N)c1

$$$$

  CDD

  0  0  0  0  0  0            999 V2000
M  END
> <Molecule Name>
CVD-0004034

> <SMILES>
Cc1cnc2c(c(nn2c1)-c1ccc(F)cc1)-c1ccnc2[nH]ccc12

$$$$

  CDD

  0  0  0  0  0  0            999 V2000
M  END
> <Molecule Name>
CVD-0004033

> <SMILES>
Cc1cnc2c(c(nn2c1)-c1ccc(F)cc1)-c1cccnc1

$$$$

  CDD

  0  0  0  0  0  0            999 V2000
M  END
> <Molecule Name>
CVD-0004032

> <SMILES>
Cc1cnc2c(c(nn2c1)-c1ccc(F)cc1)-c1ccncc1

$$$$

  CDD

  0  0  0  0  0  0            999 V2000
M  END
> <Molecule Name>
CVD-0004031

> <SMILES>
Cc1ccc2c(c(nn2c1)-c1ccc(F)cc1)-c1ccncc1

$$$$

  CDD

  0  0  0  0  0  0            999 V2000
M  END
> <Molecule Name>
CVD-0004030

> <SMILES>
O=C(NC1CCCCC1)NC(=O)c1ccccc1

$$$$

  CDD

  0  0  0  0  0  0            999 V2000
M  END
> <Molecule Name>
CVD-0004029

> <SMILES>
CS(=O)(=O)NCCC(C1CCCCC1)C(=O)CCc1c[nH]c2ncccc12

$$$$

  CDD

  0  0  0  0  0  0            999 V2000
M  END
> <Molecule Name>
CVD-0004028

> <SMILES>
CS(=O)(=O)NCCC(C1CCCCC1)C(=O)Nc1cccnc1

$$$$

  CDD

  0  0  0  0  0  0            999 V2000
M  END
> <Molecule Name>
CVD-0004027

> <SMILES>
CS(=O)(=O)NCCC(C1CCCCC1)C(=O)Cc1c[nH]c2ncccc12

$$$$

  CDD

  0  0  0  0  0  0            999 V2000
M  END
> <Molecule Name>
CVD-0004026

> <SMILES>
O=C(N1CCC(C1)Nc1ccccc1)c1ccccc1

$$$$

  CDD

  0  0  0  0  0  0            999 V2000
M  END
> <Molecule Name>
CVD-0004025

> <SMILES>
CC(C)C[C@H](NS(=O)(=O)NCc1ccccc1)C(=O)N[C@@H](C[C@@H]1CCNC1=O)C(=O)C(=O)Nc1cc(O)c(F)cc1F

$$$$

  CDD

  0  0  0  0  0  0            999 V2000
M  END
> <Molecule Name>
CVD-0004024

> <SMILES>
COc1cc(NC(=O)C(=O)[C@H](C[C@@H]2CCNC2=O)NC(=O)[C@H](CC(C)C)NC(=O)N(Cc2ccccc2)C2CCCCO2)cc(OC)c1

$$$$

  CDD

  0  0  0  0  0  0            999 V2000
M  END
> <Molecule Name>
CVD-0004023

> <SMILES>
COc1cc(F)cc(NC(=O)C(=O)[C@H](C[C@@H]2CCNC2=O)NC(=O)[C@H](CC(C)C)NC(=O)NCc2ccccc2)c1

$$$$

  CDD

  0  0  0  0  0  0            999 V2000
M  END
> <Molecule Name>
CVD-0004022

> <SMILES>
CC(C)C[C@H](NC(=O)NCc1ccccc1)C(=O)N[C@@H](C[C@@H]1CCNC1=O)C(=O)C(=O)Nc1cc(O)c(F)cc1F

$$$$

  CDD

  0  0  0  0  0  0            999 V2000
M  END
> <Molecule Name>
CVD-0004021

> <SMILES>
CC(C)C[C@H](NC(=O)NCc1ccccc1)C(=O)N[C@@H](C[C@@H]1CCNC1=O)C(=O)C(=O)NCc1ccc2OCOc2c1

$$$$

  CDD

  0  0  0  0  0  0            999 V2000
M  END
> <Molecule Name>
CVD-0004020

> <SMILES>
COc1cccc2sc(NC(=O)C(=O)[C@H](C[C@@H]3CCNC3=O)NC(=O)[C@H](CC(C)C)NS(=O)(=O)NCc3ccccc3)nc12

$$$$

  CDD

  0  0  0  0  0  0            999 V2000
M  END
> <Molecule Name>
CVD-0004019

> <SMILES>
CC(C)C[C@H](NS(=O)(=O)NCc1ccccc1)C(=O)N[C@@H](C[C@@H]1CCNC1=O)C(=O)C(=O)N(C1CS(=O)(=O)C=C1)c1ccc(C)cc1

$$$$

  CDD

  0  0  0  0  0  0            999 V2000
M  END
> <Molecule Name>
CVD-0004018

> <SMILES>
CC(C)C[C@H](NS(=O)(=O)NCc1ccccc1)C(=O)N[C@@H](C[C@@H]1CCNC1=O)C(=O)C(=O)N1CCC(CC1)C(=O)N(C)C(C)C

$$$$

  CDD

  0  0  0  0  0  0            999 V2000
M  END
> <Molecule Name>
CVD-0004017

> <SMILES>
CC(C)C[C@H](NC(=O)NCc1ccccc1)C(=O)N[C@@H](C[C@@H]1CCNC1=O)C(=O)C(=O)N1CCN(CC1)S(=O)(=O)c1cccs1

$$$$

  CDD

  0  0  0  0  0  0            999 V2000
M  END
> <Molecule Name>
CVD-0004016

> <SMILES>
COc1cccc(NC(=O)C(=O)[C@H](C[C@@H]2CCNC2=O)NC(=O)[C@H](CC(C)C)NC(=O)Nc2c(F)ccc(O)c2F)c1

$$$$

  CDD

  0  0  0  0  0  0            999 V2000
M  END
> <Molecule Name>
CVD-0004015

> <SMILES>
CC(C)C[C@H](NS(=O)(=O)NCc1ccccc1)C(=O)N[C@@H](C[C@@H]1CCNC1=O)C(=O)C(=O)N1CCN(CC1)C(C)=O

$$$$

  CDD

  0  0  0  0  0  0            999 V2000
M  END
> <Molecule Name>
CVD-0004014

> <SMILES>
CC[C@H](C)[C@H](NC(=O)[C@H](Cc1ccncc1)NC(=O)CCC1CCCCC1)C(=O)N[C@@H](CC(C)C)C(O)=O

$$$$

  CDD

  0  0  0  0  0  0            999 V2000
M  END
> <Molecule Name>
CVD-0004013

> <SMILES>
CC(C)C[C@H](NC(=O)[C@@H](Cc1c[nH]c2ccccc12)NC(=O)CN(N)Cc1ccccc1)C(O)=O

$$$$

  CDD

  0  0  0  0  0  0            999 V2000
M  END
> <Molecule Name>
CVD-0004012

> <SMILES>
N[C@H](Cc1c[nH]c2ccccc12)C(=O)NN(Cc1ccccc1)C(=O)N[C@H](Cc1c[nH]c2ccccc12)C(O)=O

$$$$

  CDD

  0  0  0  0  0  0            999 V2000
M  END
> <Molecule Name>
CVD-0004011

> <SMILES>
CC1CC=NCC1NC(=O)COCN1CCCc2ccc(cc12)S(N)(=O)=O

$$$$

  CDD

  0  0  0  0  0  0            999 V2000
M  END
> <Molecule Name>
CVD-0004010

> <SMILES>
Cc1ccc(OCC(=O)N2CCN(CCN3CCN(CCC4CN=C5N=CC=CC45)CC3)CC2)cc1

$$$$

  CDD

  0  0  0  0  0  0            999 V2000
M  END
> <Molecule Name>
CVD-0004009

> <SMILES>
CC(C)(NC(=O)c1ccccc1S(N)(=O)=O)C#N

$$$$

  CDD

  0  0  0  0  0  0            999 V2000
M  END
> <Molecule Name>
CVD-0004008

> <SMILES>
CC(C)(NC(=O)c1cc(ccc1S(N)(=O)=O)N1CCOCC1)C#N

$$$$

  CDD

  0  0  0  0  0  0            999 V2000
M  END
> <Molecule Name>
CVD-0004007

> <SMILES>
NS(=O)(=O)c1ccccc1C(=O)NCC#N

$$$$

  CDD

  0  0  0  0  0  0            999 V2000
M  END
> <Molecule Name>
CVD-0004006

> <SMILES>
NS(=O)(=O)c1ccccc1C(=O)NC1(CC1)C#N

$$$$

  CDD

  0  0  0  0  0  0            999 V2000
M  END
> <Molecule Name>
CVD-0004005

> <SMILES>
NS(=O)(=O)c1ccc(cc1C(=O)NCC#N)N1CCOCC1

$$$$

  CDD

  0  0  0  0  0  0            999 V2000
M  END
> <Molecule Name>
CVD-0004004

> <SMILES>
NS(=O)(=O)c1ccc(cc1C(=O)NC1(CC1)C#N)N1CCOCC1

$$$$

  CDD

  0  0  0  0  0  0            999 V2000
M  END
> <Molecule Name>
CVD-0004003

> <SMILES>
NS(=O)(=O)c1ccccc1C(=O)NC[C@@H]1CCCO1

$$$$

  CDD

  0  0  0  0  0  0            999 V2000
M  END
> <Molecule Name>
CVD-0004002

> <SMILES>
NS(=O)(=O)C1=CC(=O)C(CC(=O)OC(=O)C(=O)C2=CCC=C2)=CC1

$$$$

  CDD

  0  0  0  0  0  0            999 V2000
M  END
> <Molecule Name>
CVD-0004001

> <SMILES>
CC(=O)C(=O)CCC(=O)NS(=O)(=O)CCCC1=COC(=CC1)S(=O)(=O)C(=O)C(C)=O

$$$$

  CDD

  0  0  0  0  0  0            999 V2000
M  END
> <Molecule Name>
CVD-0004000

> <SMILES>
ONCCC1=CCC(=C1)S(=O)(=O)C(=O)CC(=O)C(=O)SCC(=O)C=O

$$$$

  CDD

  0  0  0  0  0  0            999 V2000
M  END
> <Molecule Name>
CVD-0003999

> <SMILES>
CC\C(=C(\C)CCC(=O)C=O)C(=O)OS(N)(=O)=O

$$$$

  CDD

  0  0  0  0  0  0            999 V2000
M  END
> <Molecule Name>
CVD-0003998

> <SMILES>
CCNC(=O)S(=O)(=O)CCOC1=CCC=CC1=O

$$$$

  CDD

  0  0  0  0  0  0            999 V2000
M  END
> <Molecule Name>
CVD-0003997

> <SMILES>
CS(=O)(=O)C(=O)CNC(=O)[C@H](CO)C(=O)C1=CC=CCC1

$$$$

  CDD

  0  0  0  0  0  0            999 V2000
M  END
> <Molecule Name>
CVD-0003996

> <SMILES>
OC(NC(=O)C(=O)OC(=O)CCC(=O)C(=O)C(=O)C1=CCCCC1)c1cc1=O

$$$$

  CDD

  0  0  0  0  0  0            999 V2000
M  END
> <Molecule Name>
CVD-0003995

> <SMILES>
O=C(CC(=O)C(=O)c1ccco1)NCC(=O)C(=O)C(=O)C(=O)CCCC(=O)Oc1ccoc1

$$$$

  CDD

  0  0  0  0  0  0            999 V2000
M  END
> <Molecule Name>
CVD-0003994

> <SMILES>
OOC(=O)C(=O)CCCC(=O)CC(=O)C(=O)C(O)=O

$$$$

  CDD

  0  0  0  0  0  0            999 V2000
M  END
> <Molecule Name>
CVD-0003993

> <SMILES>
CCS(=O)(=O)NC1=C(CC=C1)S(=O)(=O)C(=O)C(=O)CC(N)=O

$$$$

  CDD

  0  0  0  0  0  0            999 V2000
M  END
> <Molecule Name>
CVD-0003992

> <SMILES>
CC(=O)NC(=O)S(=O)(=O)CC(=O)CCOC1=CCC=CC1

$$$$

  CDD

  0  0  0  0  0  0            999 V2000
M  END
> <Molecule Name>
CVD-0003991

> <SMILES>
OS(=O)(=O)C(=O)CNCC(=O)COC(=O)\C=C\C(=O)CC1=CCCCC1

$$$$

  CDD

  0  0  0  0  0  0            999 V2000
M  END
> <Molecule Name>
CVD-0003990

> <SMILES>
CNC(=O)\C=C\CCS(=O)(=O)C(=O)C1=COC=CC1

$$$$

  CDD

  0  0  0  0  0  0            999 V2000
M  END
> <Molecule Name>
CVD-0003989

> <SMILES>
O=CCS\C=C\NC(=O)C(=O)OC1=CC(C=O)=COC1

$$$$

  CDD

  0  0  0  0  0  0            999 V2000
M  END
> <Molecule Name>
CVD-0003988

> <SMILES>
CNC1=C(CC(=O)C\C=C\S(=O)(=O)C(=O)C(=O)C(=O)C(=O)S(=O)(=O)C(C)=O)CCC1

$$$$

  CDD

  0  0  0  0  0  0            999 V2000
M  END
> <Molecule Name>
CVD-0003987

> <SMILES>
O\C=C\C(=O)SC\C=C\NC(=O)C(=O)OCC(=O)C=C=C

$$$$

  CDD

  0  0  0  0  0  0            999 V2000
M  END
> <Molecule Name>
CVD-0003986

> <SMILES>
O\C=C\S(=O)(=O)C(=O)C1=C(CC=CC1)C(=O)CC1=CC=NC1=O

$$$$

  CDD

  0  0  0  0  0  0            999 V2000
M  END
> <Molecule Name>
CVD-0003985

> <SMILES>
OC(=O)C(=O)NC(=O)S(O)(=O)=O

$$$$

  CDD

  0  0  0  0  0  0            999 V2000
M  END
> <Molecule Name>
CVD-0003984

> <SMILES>
OC#CC(=O)NSCC(=O)C(=O)\C=C\C(=O)C(=O)C1=CC=COC1

$$$$

  CDD

  0  0  0  0  0  0            999 V2000
M  END
> <Molecule Name>
CVD-0003983

> <SMILES>
OC(=O)C(=O)C(=O)C(=O)NS(O)(=O)=O

$$$$

  CDD

  0  0  0  0  0  0            999 V2000
M  END
> <Molecule Name>
CVD-0003982

> <SMILES>
CC(=O)CC1=CCCC(=C1)C(=O)C(=O)C(=O)C(=O)C(=O)CC(=O)C(=N)C(=O)CO

$$$$

  CDD

  0  0  0  0  0  0            999 V2000
M  END
> <Molecule Name>
CVD-0003981

> <SMILES>
OCOc1occc1CCC(=O)OC(=O)NC(=O)OC(=O)C(=O)CCCC1=CCC=CO1

$$$$

  CDD

  0  0  0  0  0  0            999 V2000
M  END
> <Molecule Name>
CVD-0003980

> <SMILES>
OONC1=CC(CC=C1)C(=O)S(=O)(=O)CCCC1=C(O)OCC=C1

$$$$

  CDD

  0  0  0  0  0  0            999 V2000
M  END
> <Molecule Name>
CVD-0003979

> <SMILES>
CNS(=O)(=O)CC(=O)N(C)C(=O)c1ccccc1C(=O)C(=O)C(=O)\C=C\CO

$$$$

  CDD

  0  0  0  0  0  0            999 V2000
M  END
> <Molecule Name>
CVD-0003978

> <SMILES>
COCCC(=O)CCNS(C)(=O)=O

$$$$

  CDD

  0  0  0  0  0  0            999 V2000
M  END
> <Molecule Name>
CVD-0003977

> <SMILES>
O\C=C\C=C\C(=O)S(=O)(=O)C(=O)NC(=O)C(=O)S(=O)(=O)CC1=CCCC=C1

$$$$

  CDD

  0  0  0  0  0  0            999 V2000
M  END
> <Molecule Name>
CVD-0003976

> <SMILES>
CC(=O)[S@@]1(=O)=NC(=O)C2=C1C=C(C2)C(=O)C(O)=C

$$$$

  CDD

  0  0  0  0  0  0            999 V2000
M  END
> <Molecule Name>
CVD-0003975

> <SMILES>
CC1=C(CC(=O)CC(=O)C(=O)S(N)(=O)=O)C(O)=CCC1

$$$$

  CDD

  0  0  0  0  0  0            999 V2000
M  END
> <Molecule Name>
CVD-0003974

> <SMILES>
COS(=O)(=O)C1=C(CCC1)C(=O)C(=O)CN

$$$$

  CDD

  0  0  0  0  0  0            999 V2000
M  END
> <Molecule Name>
CVD-0003973

> <SMILES>
CC(=O)S(=O)(=O)CCC(=O)NC(=O)C(=O)c1ccccc1

$$$$

  CDD

  0  0  0  0  0  0            999 V2000
M  END
> <Molecule Name>
CVD-0003972

> <SMILES>
COC1=C(C=CC1)C1=CCC(OS(=O)(=O)C(=O)NC(C)=O)=C1

$$$$

  CDD

  0  0  0  0  0  0            999 V2000
M  END
> <Molecule Name>
CVD-0003971

> <SMILES>
OC1=C[C@H](CC1)S(=O)(=O)C(=O)C(=O)NCC1=COCC=C1

$$$$

  CDD

  0  0  0  0  0  0            999 V2000
M  END
> <Molecule Name>
CVD-0003970

> <SMILES>
COC1CC2=CC=CNC2CC1OS(O)(=O)=O

$$$$

  CDD

  0  0  0  0  0  0            999 V2000
M  END
> <Molecule Name>
CVD-0003969

> <SMILES>
OC1=CC(C2=CONC2C1)S(=O)(=O)CC(=O)C(=O)CC=C

$$$$

  CDD

  0  0  0  0  0  0            999 V2000
M  END
> <Molecule Name>
CVD-0003968

> <SMILES>
Oc1ccc2c(c1)C(=O)N=[S@@]2(=O)C(=O)Oc1ccoc1

$$$$

  CDD

  0  0  0  0  0  0            999 V2000
M  END
> <Molecule Name>
CVD-0003967

> <SMILES>
CC(=O)C(=O)C(=O)NC1=C(OCO1)C(=O)C(=O)C(=O)CC1=COC=CC1

$$$$

  CDD

  0  0  0  0  0  0            999 V2000
M  END
> <Molecule Name>
CVD-0003966

> <SMILES>
CC(=O)N1CCN(CC1)c1cccc(NC(=O)N2CCOCC2)c1

$$$$

  CDD

  0  0  0  0  0  0            999 V2000
M  END
> <Molecule Name>
CVD-0003965

> <SMILES>
CC(=O)N1CCN(CCCc2ccc(cc2)S(N)(=O)=O)CC1

$$$$

  CDD

  0  0  0  0  0  0            999 V2000
M  END
> <Molecule Name>
CVD-0003964

> <SMILES>
O=C(CN1CCNCC1)Nc1ccccc1

$$$$

  CDD

  0  0  0  0  0  0            999 V2000
M  END
> <Molecule Name>
CVD-0003963

> <SMILES>
CC(=O)N1CCN(CC1)C(N1CCC(O)CC1)c1ccccc1

$$$$

  CDD

  0  0  0  0  0  0            999 V2000
M  END
> <Molecule Name>
CVD-0003962

> <SMILES>
CC(=O)N1CCN(Cc2ccc(CCS(N)(=O)=O)cc2)CC1

$$$$

  CDD

  0  0  0  0  0  0            999 V2000
M  END
> <Molecule Name>
CVD-0003961

> <SMILES>
CC(=O)NCCc1cccc(CN2CCN(CC2)C(C)=O)c1

$$$$

  CDD

  0  0  0  0  0  0            999 V2000
M  END
> <Molecule Name>
CVD-0003960

> <SMILES>
CC(=O)NCCc1ccc(CN2CCN(CC2)C(C)=O)cc1

$$$$

  CDD

  0  0  0  0  0  0            999 V2000
M  END
> <Molecule Name>
CVD-0003959

> <SMILES>
CC(=O)N1CCN(CC1)S(=O)(=O)Cc1ccccc1

$$$$

  CDD

  0  0  0  0  0  0            999 V2000
M  END
> <Molecule Name>
CVD-0003958

> <SMILES>
CC(=O)NC(CNS(C)(=O)=O)c1cccc(Cl)c1

$$$$

  CDD

  0  0  0  0  0  0            999 V2000
M  END
> <Molecule Name>
CVD-0003957

> <SMILES>
CN(Cc1cc(F)cc2c(CCNC(C)=O)c[nH]c12)C(C)=O

$$$$

  CDD

  0  0  0  0  0  0            999 V2000
M  END
> <Molecule Name>
CVD-0003956

> <SMILES>
CC(=O)NC(N1CCOCC1)c1cccc(Cl)c1

$$$$

  CDD

  0  0  0  0  0  0            999 V2000
M  END
> <Molecule Name>
CVD-0003955

> <SMILES>
CC(=O)NC(c1nnc(C)s1)c1cccc(Cl)c1

$$$$

  CDD

  0  0  0  0  0  0            999 V2000
M  END
> <Molecule Name>
CVD-0003954

> <SMILES>
CC(=O)NCc1cscc1C1CCCC1C(N)=O

$$$$

  CDD

  0  0  0  0  0  0            999 V2000
M  END
> <Molecule Name>
CVD-0003953

> <SMILES>
CC(=O)NCc1cc(ccc1CNC(=O)N1CCOCC1)C#N

$$$$

  CDD

  0  0  0  0  0  0            999 V2000
M  END
> <Molecule Name>
CVD-0003952

> <SMILES>
NC(O)C1CCCC1C(C1C=CC=C1)N1C=CC(O)C=C1

$$$$

  CDD

  0  0  0  0  0  0            999 V2000
M  END
> <Molecule Name>
CVD-0003951

> <SMILES>
O=C(NCCc1cncc(Nc2ccccc2Nc2ccccc2)c1)Nc1ccccc1

$$$$

  CDD

  0  0  0  0  0  0            999 V2000
M  END
> <Molecule Name>
CVD-0003950

> <SMILES>
CC(CNc1cncc(CCNC(=O)Nc2ccccc2)c1)Nc1ccccc1

$$$$

  CDD

  0  0  0  0  0  0            999 V2000
M  END
> <Molecule Name>
CVD-0003949

> <SMILES>
Cc1cccc(NC(=O)Nc2cccnc2)c1

$$$$

  CDD

  0  0  0  0  0  0            999 V2000
M  END
> <Molecule Name>
CVD-0003948

> <SMILES>
Cc1cc(Cl)cc(NC(=O)Nc2cccnc2)c1

$$$$

  CDD

  0  0  0  0  0  0            999 V2000
M  END
> <Molecule Name>
CVD-0003947

> <SMILES>
Oc1cc(Cl)cc(NC(=O)Nc2cccnc2)c1

$$$$

  CDD

  0  0  0  0  0  0            999 V2000
M  END
> <Molecule Name>
CVD-0003946

> <SMILES>
Clc1cc(Cl)cc(NC(=O)Nc2cccnc2)c1

$$$$

  CDD

  0  0  0  0  0  0            999 V2000
M  END
> <Molecule Name>
CVD-0003945

> <SMILES>
Clc1cc(NC(=O)Nc2cccnc2)cc(c1)C#N

$$$$

  CDD

  0  0  0  0  0  0            999 V2000
M  END
> <Molecule Name>
CVD-0003944

> <SMILES>
Cc1ccncc1NC(=O)NC1(CCCCC1)c1cccnc1

$$$$

  CDD

  0  0  0  0  0  0            999 V2000
M  END
> <Molecule Name>
CVD-0003943

> <SMILES>
O=S(=O)(N1CCN(CC1)C1(CCCC1)C#Cc1ccccn1)c1ccsc1

$$$$

  CDD

  0  0  0  0  0  0            999 V2000
M  END
> <Molecule Name>
CVD-0003942

> <SMILES>
Cn1cnc(c1)C#CC1(CCCCC1)NC1CCN(CC1)C(=O)CCl

$$$$

  CDD

  0  0  0  0  0  0            999 V2000
M  END
> <Molecule Name>
CVD-0003941

> <SMILES>
ClCC(=O)N1CCC(CC1)NC1(CCCCC1)C#CC1CCCCN1

$$$$

  CDD

  0  0  0  0  0  0            999 V2000
M  END
> <Molecule Name>
CVD-0003940

> <SMILES>
CC(=O)NCCc1c[nH]c2c(cc(F)cc12)C1(CCCCC1)C#CC1CCCNC1

$$$$

  CDD

  0  0  0  0  0  0            999 V2000
M  END
> <Molecule Name>
CVD-0003939

> <SMILES>
O=S(=O)(N1CCN(CC1)C1(CCCCC1)C#Cc1ccccn1)c1ccsc1

$$$$

  CDD

  0  0  0  0  0  0            999 V2000
M  END
> <Molecule Name>
CVD-0003938

> <SMILES>
CC(=O)NCCc1c[nH]c2c(cc(F)cc12)C1(CCCCC1)c1cccnc1

$$$$

  CDD

  0  0  0  0  0  0            999 V2000
M  END
> <Molecule Name>
CVD-0003937

> <SMILES>
CC(=O)NCCc1c[nH]c2c(cc(F)cc12)C1(CCCC1)C#Cc1ccccn1

$$$$

  CDD

  0  0  0  0  0  0            999 V2000
M  END
> <Molecule Name>
CVD-0003936

> <SMILES>
O=C(CC1(CCCCC1)NC1(CCCC1)C#Cc1ccccn1)Nc1cccnc1

$$$$

  CDD

  0  0  0  0  0  0            999 V2000
M  END
> <Molecule Name>
CVD-0003935

> <SMILES>
NS(=O)(=O)c1cccc(c1)C1(CCCC1)C#Cc1ccccn1

$$$$

  CDD

  0  0  0  0  0  0            999 V2000
M  END
> <Molecule Name>
CVD-0003934

> <SMILES>
Cc1ccncc1NC(=O)CNC1(CCCCC1)c1ccccc1

$$$$

  CDD

  0  0  0  0  0  0            999 V2000
M  END
> <Molecule Name>
CVD-0003933

> <SMILES>
Cc1ncc(s1)C1(CCCCC1)NC1(CCCC1)C#Cc1ccccn1

$$$$

  CDD

  0  0  0  0  0  0            999 V2000
M  END
> <Molecule Name>
CVD-0003932

> <SMILES>
OC1CCC(CC1)N(c1cccc(c1)C#N)C1(CCCCC1)C#Cc1cccnc1

$$$$

  CDD

  0  0  0  0  0  0            999 V2000
M  END
> <Molecule Name>
CVD-0003931

> <SMILES>
OC1CCC(CC1)N(C1(CCCCC1)C#Cc1cccnc1)S(=O)(=O)c1ccccc1F

$$$$

  CDD

  0  0  0  0  0  0            999 V2000
M  END
> <Molecule Name>
CVD-0003930

> <SMILES>
COc1ccc(cc1)N(C1CCC(O)CC1)c1cccc2ccn(C)c12

$$$$

  CDD

  0  0  0  0  0  0            999 V2000
M  END
> <Molecule Name>
CVD-0003929

> <SMILES>
COc1ccc(cc1)N(C1CCC(O)CC1)c1ccc(OC)cc1

$$$$

  CDD

  0  0  0  0  0  0            999 V2000
M  END
> <Molecule Name>
CVD-0003928

> <SMILES>
COc1ccc(cc1)N(C1CCC(O)CC1)c1cc(C)cc(F)c1

$$$$

  CDD

  0  0  0  0  0  0            999 V2000
M  END
> <Molecule Name>
CVD-0003927

> <SMILES>
Cc1ccc(c(C)c1)S(=O)(=O)N(Cc1ccccc1C)C1CCC(O)CC1

$$$$

  CDD

  0  0  0  0  0  0            999 V2000
M  END
> <Molecule Name>
CVD-0003926

> <SMILES>
CC(C1CCCCC1)C(=O)N(C1CCC(O)CC1)S(=O)(=O)c1ccc(C)cc1C

$$$$

  CDD

  0  0  0  0  0  0            999 V2000
M  END
> <Molecule Name>
CVD-0003925

> <SMILES>
Cc1ccncc1NCc1ccncc1NC1(CCCCC1)C#Cc1ccccn1

$$$$

  CDD

  0  0  0  0  0  0            999 V2000
M  END
> <Molecule Name>
CVD-0003924

> <SMILES>
OC1CCC(CC1)N(C(=O)c1ccccc1)C1(CCCCC1)C#Cc1ccccn1

$$$$

  CDD

  0  0  0  0  0  0            999 V2000
M  END
> <Molecule Name>
CVD-0003923

> <SMILES>
OC1CCC(CC1)N(C(=O)Nc1ccccc1)C1(CCCCC1)C#Cc1ccccn1

$$$$

  CDD

  0  0  0  0  0  0            999 V2000
M  END
> <Molecule Name>
CVD-0003922

> <SMILES>
OC1CCC(CC1)N(C(=O)NC1CCCCC1)C1(CCCCC1)C#Cc1ccccn1

$$$$

  CDD

  0  0  0  0  0  0            999 V2000
M  END
> <Molecule Name>
CVD-0003921

> <SMILES>
OC1CCC(CC1)N(C1(CCCCC1)C#Cc1ccccn1)S(=O)(=O)c1cccc(F)c1

$$$$

  CDD

  0  0  0  0  0  0            999 V2000
M  END
> <Molecule Name>
CVD-0003920

> <SMILES>
OC1CCC(CC1)N(C(=O)c1ccccc1)S(=O)(=O)c1ccccc1F

$$$$

  CDD

  0  0  0  0  0  0            999 V2000
M  END
> <Molecule Name>
CVD-0003919

> <SMILES>
COc1ccc(CCc2ccnc(c2)-n2cnc3cc(C)c(C)cc23)cc1

$$$$

  CDD

  0  0  0  0  0  0            999 V2000
M  END
> <Molecule Name>
CVD-0003918

> <SMILES>
OC1CCC(CC1)N(C1(CCCCC1)C#CC1CCCCC1)S(=O)(=O)c1ccccc1F

$$$$

  CDD

  0  0  0  0  0  0            999 V2000
M  END
> <Molecule Name>
CVD-0003917

> <SMILES>
Fc1ccccc1S(=O)(=O)N(CC1CCCCC1)c1cccc(c1)C#N

$$$$

  CDD

  0  0  0  0  0  0            999 V2000
M  END
> <Molecule Name>
CVD-0003916

> <SMILES>
Fc1ccccc1S(=O)(=O)N(CC1CCCCC1)C(=O)c1ccccc1

$$$$

  CDD

  0  0  0  0  0  0            999 V2000
M  END
> <Molecule Name>
CVD-0003915

> <SMILES>
Fc1ccccc1S(=O)(=O)N(CC1CCCCC1)C(=O)NC1CCCCC1

$$$$

  CDD

  0  0  0  0  0  0            999 V2000
M  END
> <Molecule Name>
CVD-0003914

> <SMILES>
C(Cc1ccnc(c1)C1(CCCCC1)C#Cc1ccccn1)c1cn[nH]c1

$$$$

  CDD

  0  0  0  0  0  0            999 V2000
M  END
> <Molecule Name>
CVD-0003913

> <SMILES>
C(Cc1ccnc(c1)-c1nc2ccccc2s1)c1cn[nH]c1

$$$$

  CDD

  0  0  0  0  0  0            999 V2000
M  END
> <Molecule Name>
CVD-0003912

> <SMILES>
C(Cc1ccnc(Cc2ccc3ccccc3c2)c1)c1cn[nH]c1

$$$$

  CDD

  0  0  0  0  0  0            999 V2000
M  END
> <Molecule Name>
CVD-0003911

> <SMILES>
OC1CCC(CC1)N(C1CCN(CC1)C(=O)CCl)c1cc2CCCCc2s1

$$$$

  CDD

  0  0  0  0  0  0            999 V2000
M  END
> <Molecule Name>
CVD-0003910

> <SMILES>
OC1CCC(CC1)N(c1cc2CCCCc2s1)S(=O)(=O)c1ccc(Cl)s1

$$$$

  CDD

  0  0  0  0  0  0            999 V2000
M  END
> <Molecule Name>
CVD-0003909

> <SMILES>
OC1CCC(CC1)N(C(=O)Nc1ccccc1)c1cc2CCCCc2s1

$$$$

  CDD

  0  0  0  0  0  0            999 V2000
M  END
> <Molecule Name>
CVD-0003908

> <SMILES>
COc1ccc(CCc2ccnc(c2)C(=O)N2CCSCC2)cc1

$$$$

  CDD

  0  0  0  0  0  0            999 V2000
M  END
> <Molecule Name>
CVD-0003907

> <SMILES>
OC1CCC(CC1)N(C(=O)NC1CCCCC1)c1cc2CCCCc2s1

$$$$

  CDD

  0  0  0  0  0  0            999 V2000
M  END
> <Molecule Name>
CVD-0003906

> <SMILES>
OC1CCC(CC1)N(C(=O)Cc1cccnc1)c1cc2CCCCc2s1

$$$$

  CDD

  0  0  0  0  0  0            999 V2000
M  END
> <Molecule Name>
CVD-0003905

> <SMILES>
OC1CCC(CC1)N(C(=O)C1CCN(CC1)C(=O)CCl)c1cc2CCCCc2s1

$$$$

  CDD

  0  0  0  0  0  0            999 V2000
M  END
> <Molecule Name>
CVD-0003904

> <SMILES>
ClCC(=O)N1CCN(Cc2ccncc2Nc2cc3CCCCc3s2)CC1

$$$$

  CDD

  0  0  0  0  0  0            999 V2000
M  END
> <Molecule Name>
CVD-0003903

> <SMILES>
ClCC(=O)N1CCCN(Cc2ccncc2Nc2cc3CCCCc3s2)CC1

$$$$

  CDD

  0  0  0  0  0  0            999 V2000
M  END
> <Molecule Name>
CVD-0003902

> <SMILES>
ClCC(=O)Nc1cccc(c1)-c1cc2CCCCc2s1

$$$$

  CDD

  0  0  0  0  0  0            999 V2000
M  END
> <Molecule Name>
CVD-0003901

> <SMILES>
Cc1cc(F)cc(CCc2ccnc(Nc3cnccc3C)c2)c1

$$$$

  CDD

  0  0  0  0  0  0            999 V2000
M  END
> <Molecule Name>
CVD-0003900

> <SMILES>
Cn1ccc2cccc(-c3cc(CCC4CCN(CC4)C(=O)CCl)ccn3)c12

$$$$

  CDD

  0  0  0  0  0  0            999 V2000
M  END
> <Molecule Name>
CVD-0003899

> <SMILES>
OCc1ccncc1CCc1ccnc(c1)C1(CCCCC1)C#Cc1ccccn1

$$$$

  CDD

  0  0  0  0  0  0            999 V2000
M  END
> <Molecule Name>
CVD-0003898

> <SMILES>
Cn1ccc2cccc(CCc3ccnc(c3)C3CCCN(C3)C(=O)CCl)c12

$$$$

  CDD

  0  0  0  0  0  0            999 V2000
M  END
> <Molecule Name>
CVD-0003897

> <SMILES>
COc1ccc(cc1)N(C1CCC(O)CC1)C(=O)C(C)c1ccccc1

$$$$

  CDD

  0  0  0  0  0  0            999 V2000
M  END
> <Molecule Name>
CVD-0003896

> <SMILES>
ClCC(=O)N1CCCC(C1)c1cc(CCc2cccc(c2)C#N)ccn1

$$$$

  CDD

  0  0  0  0  0  0            999 V2000
M  END
> <Molecule Name>
CVD-0003895

> <SMILES>
N#Cc1cccc(c1)-c1nc(nc2ccccc12)-c1cccnc1

$$$$

  CDD

  0  0  0  0  0  0            999 V2000
M  END
> <Molecule Name>
CVD-0003894

> <SMILES>
Cc1cc(F)cc(c1)-c1nc(nc2ccccc12)-c1cccnc1

$$$$

  CDD

  0  0  0  0  0  0            999 V2000
M  END
> <Molecule Name>
CVD-0003893

> <SMILES>
ClCC(=O)N1CCCC(C1)c1nc(nc2ccccc12)-c1cccnc1

$$$$

  CDD

  0  0  0  0  0  0            999 V2000
M  END
> <Molecule Name>
CVD-0003892

> <SMILES>
C1CCC(CC1)(C#CC1CCCNC1)c1nc(nc2ccccc12)-c1cccnc1

$$$$

  CDD

  0  0  0  0  0  0            999 V2000
M  END
> <Molecule Name>
CVD-0003891

> <SMILES>
Cc1ccc(cc1)C(=O)N(CC1CCCCC1)c1nc2c(C)ccnc2[nH]1

$$$$

  CDD

  0  0  0  0  0  0            999 V2000
M  END
> <Molecule Name>
CVD-0003890

> <SMILES>
Cc1ccnc2[nH]c(CCc3ccnc(c3)-c3cccc(c3)C#N)nc12

$$$$

  CDD

  0  0  0  0  0  0            999 V2000
M  END
> <Molecule Name>
CVD-0003889

> <SMILES>
Cc1cc(F)cc(c1)-c1cc(CCc2nc3c(C)ccnc3[nH]2)ccn1

$$$$

  CDD

  0  0  0  0  0  0            999 V2000
M  END
> <Molecule Name>
CVD-0003888

> <SMILES>
Cc1ccnc2[nH]c(nc12)C1(CCCCC1)C#CC1CCC[N]C1

$$$$

  CDD

  0  0  0  0  0  0            999 V2000
M  END
> <Molecule Name>
CVD-0003887

> <SMILES>
CC(C(=O)N(C1CCC(O)CC1)C(=O)C(C)c1ccccc1)c1ccccc1

$$$$

  CDD

  0  0  0  0  0  0            999 V2000
M  END
> <Molecule Name>
CVD-0003886

> <SMILES>
COC1CCN(CC1)c1ccc(cc1)S(N)(=O)=O

$$$$

  CDD

  0  0  0  0  0  0            999 V2000
M  END
> <Molecule Name>
CVD-0003885

> <SMILES>
NS(=O)(=O)c1ccc(cc1)N1CCC(CC1)c1nc2ccccc2s1

$$$$

  CDD

  0  0  0  0  0  0            999 V2000
M  END
> <Molecule Name>
CVD-0003884

> <SMILES>
NS(=O)(=O)c1ccc(cc1)N1CCC(CC1)c1ccco1

$$$$

  CDD

  0  0  0  0  0  0            999 V2000
M  END
> <Molecule Name>
CVD-0003883

> <SMILES>
NS(=O)(=O)c1ccc(cc1)N1CCC(CC1)c1ccc(Cl)s1

$$$$

  CDD

  0  0  0  0  0  0            999 V2000
M  END
> <Molecule Name>
CVD-0003882

> <SMILES>
NS(=O)(=O)c1ccc(cc1)N1CCC(CC1)c1ccc(Br)s1

$$$$

  CDD

  0  0  0  0  0  0            999 V2000
M  END
> <Molecule Name>
CVD-0003881

> <SMILES>
CCN(C)CC1CCN(CC1)c1ccc(cc1)S(N)(=O)=O

$$$$

  CDD

  0  0  0  0  0  0            999 V2000
M  END
> <Molecule Name>
CVD-0003880

> <SMILES>
CC(C)N(C)CC1CCN(CC1)c1ccc(cc1)S(N)(=O)=O

$$$$

  CDD

  0  0  0  0  0  0            999 V2000
M  END
> <Molecule Name>
CVD-0003879

> <SMILES>
NS(=O)(=O)c1ccc(cc1)N1CCC(CNc2cccc(F)c2)CC1

$$$$

  CDD

  0  0  0  0  0  0            999 V2000
M  END
> <Molecule Name>
CVD-0003878

> <SMILES>
NS(=O)(=O)c1ccc(cc1)N1CCC(CNc2cccc(Cl)c2)CC1

$$$$

  CDD

  0  0  0  0  0  0            999 V2000
M  END
> <Molecule Name>
CVD-0003877

> <SMILES>
Cc1cccc(NCC2CCN(CC2)c2ccc(cc2)S(N)(=O)=O)c1

$$$$

  CDD

  0  0  0  0  0  0            999 V2000
M  END
> <Molecule Name>
CVD-0003876

> <SMILES>
NS(=O)(=O)c1ccc(cc1)N1CCC(CNc2ccc(F)cc2)CC1

$$$$

  CDD

  0  0  0  0  0  0            999 V2000
M  END
> <Molecule Name>
CVD-0003875

> <SMILES>
Cc1ccc(NCC2CCN(CC2)c2ccc(cc2)S(N)(=O)=O)cc1

$$$$

  CDD

  0  0  0  0  0  0            999 V2000
M  END
> <Molecule Name>
CVD-0003874

> <SMILES>
NS(=O)(=O)c1ccc(cc1)N1CCC(CSc2ccco2)CC1

$$$$

  CDD

  0  0  0  0  0  0            999 V2000
M  END
> <Molecule Name>
CVD-0003873

> <SMILES>
NS(=O)(=O)c1ccc(cc1)N1CCC(CSc2ccccn2)CC1

$$$$

  CDD

  0  0  0  0  0  0            999 V2000
M  END
> <Molecule Name>
CVD-0003872

> <SMILES>
NS(=O)(=O)c1ccc(cc1)N1CCC(CSc2ccc(Cl)s2)CC1

$$$$

  CDD

  0  0  0  0  0  0            999 V2000
M  END
> <Molecule Name>
CVD-0003871

> <SMILES>
Cc1ccncc1-c1ccc(cc1)S(N)(=O)=O

$$$$

  CDD

  0  0  0  0  0  0            999 V2000
M  END
> <Molecule Name>
CVD-0003870

> <SMILES>
CCSCC1CCN(CC1)c1ccc(cc1)S(N)(=O)=O

$$$$

  CDD

  0  0  0  0  0  0            999 V2000
M  END
> <Molecule Name>
CVD-0003869

> <SMILES>
Cc1ccncc1SCC1CCN(CC1)c1ccc(cc1)S(N)(=O)=O

$$$$

  CDD

  0  0  0  0  0  0            999 V2000
M  END
> <Molecule Name>
CVD-0003868

> <SMILES>
NS(=O)(=O)c1ccc(cc1)N1CCC(CSc2ccsc2)CC1

$$$$

  CDD

  0  0  0  0  0  0            999 V2000
M  END
> <Molecule Name>
CVD-0003867

> <SMILES>
NS(=O)(=O)c1ccc(cc1)N1CCC(CSc2ccncc2)CC1

$$$$

  CDD

  0  0  0  0  0  0            999 V2000
M  END
> <Molecule Name>
CVD-0003866

> <SMILES>
NS(=O)(=O)c1ccc(cc1)N1CCC(CSc2cccnc2Cl)CC1

$$$$

  CDD

  0  0  0  0  0  0            999 V2000
M  END
> <Molecule Name>
CVD-0003865

> <SMILES>
NS(=O)(=O)c1ccc(cc1)N1CCC(CSc2ccc(cc2)C#N)CC1

$$$$

  CDD

  0  0  0  0  0  0            999 V2000
M  END
> <Molecule Name>
CVD-0003864

> <SMILES>
NS(=O)(=O)c1ccc(cc1)N1CCC(CSC2CCCCC2)CC1

$$$$

  CDD

  0  0  0  0  0  0            999 V2000
M  END
> <Molecule Name>
CVD-0003863

> <SMILES>
NS(=O)(=O)c1ccc(cc1)N1CCC(CN2CCCC(C2)c2cccs2)CC1

$$$$

  CDD

  0  0  0  0  0  0            999 V2000
M  END
> <Molecule Name>
CVD-0003862

> <SMILES>
NS(=O)(=O)c1ccc(cc1)N1CCC(CN2CCCC(C2)c2ccc(Cl)s2)CC1

$$$$

  CDD

  0  0  0  0  0  0            999 V2000
M  END
> <Molecule Name>
CVD-0003861

> <SMILES>
NS(=O)(=O)c1ccc(cc1)N1CCC(CN2CCCC(C2)c2ccc(Br)s2)CC1

$$$$

  CDD

  0  0  0  0  0  0            999 V2000
M  END
> <Molecule Name>
CVD-0003860

> <SMILES>
NS(=O)(=O)c1ccc(cc1)-c1ccsc1

$$$$

  CDD

  0  0  0  0  0  0            999 V2000
M  END
> <Molecule Name>
CVD-0003859

> <SMILES>
NS(=O)(=O)c1ccc(cc1)N1CCC(CN2CCCC(C2)c2ccsc2)CC1

$$$$

  CDD

  0  0  0  0  0  0            999 V2000
M  END
> <Molecule Name>
CVD-0003858

> <SMILES>
NS(=O)(=O)c1ccc(cc1)N1CCC(CN2CCCC(C2)c2ccccc2)CC1

$$$$

  CDD

  0  0  0  0  0  0            999 V2000
M  END
> <Molecule Name>
CVD-0003857

> <SMILES>
NS(=O)(=O)c1ccc(cc1)N1CCC(CN2CCCC(C2)c2cccc3ccccc23)CC1

$$$$

  CDD

  0  0  0  0  0  0            999 V2000
M  END
> <Molecule Name>
CVD-0003856

> <SMILES>
NS(=O)(=O)c1ccc(cc1)N1CCC(CN2CCCC(C2)c2cccc(F)c2)CC1

$$$$

  CDD

  0  0  0  0  0  0            999 V2000
M  END
> <Molecule Name>
CVD-0003855

> <SMILES>
NS(=O)(=O)c1ccc(cc1)N1CCC(CN2CCCC(C2)c2cccc(Cl)c2)CC1

$$$$

  CDD

  0  0  0  0  0  0            999 V2000
M  END
> <Molecule Name>
CVD-0003854

> <SMILES>
Cc1ccc(cc1)C1CCCN(CC2CCN(CC2)c2ccc(cc2)S(N)(=O)=O)C1

$$$$

  CDD

  0  0  0  0  0  0            999 V2000
M  END
> <Molecule Name>
CVD-0003853

> <SMILES>
COCC1CCN(CC1)c1ccc(cc1)S(N)(=O)=O

$$$$

  CDD

  0  0  0  0  0  0            999 V2000
M  END
> <Molecule Name>
CVD-0003852

> <SMILES>
NS(=O)(=O)c1ccc(cc1)N1CCC(CN2CC(c3ccccc3)c3ccccc3C2)CC1

$$$$

  CDD

  0  0  0  0  0  0            999 V2000
M  END
> <Molecule Name>
CVD-0003851

> <SMILES>
NS(=O)(=O)c1ccc(cc1)N1CCC(CN2CCSCC2)CC1

$$$$

  CDD

  0  0  0  0  0  0            999 V2000
M  END
> <Molecule Name>
CVD-0003850

> <SMILES>
NS(=O)(=O)c1ccc(cc1)N1CCC(CN2CCCCCC2)CC1

$$$$

  CDD

  0  0  0  0  0  0            999 V2000
M  END
> <Molecule Name>
CVD-0003849

> <SMILES>
NS(=O)(=O)c1ccc(cc1)-c1ccncc1

$$$$

  CDD

  0  0  0  0  0  0            999 V2000
M  END
> <Molecule Name>
CVD-0003848

> <SMILES>
NS(=O)(=O)c1ccc(cc1)N1CCC(CN2CCCCC2)CC1

$$$$

  CDD

  0  0  0  0  0  0            999 V2000
M  END
> <Molecule Name>
CVD-0003847

> <SMILES>
NS(=O)(=O)c1ccc(cc1)N1CCC(CC1)[C@@H]1CCCO1

$$$$

  CDD

  0  0  0  0  0  0            999 V2000
M  END
> <Molecule Name>
CVD-0003846

> <SMILES>
Cc1ccncc1C1CCN(CC1)c1ccc(cc1)S(N)(=O)=O

$$$$

  CDD

  0  0  0  0  0  0            999 V2000
M  END
> <Molecule Name>
CVD-0003845

> <SMILES>
NS(=O)(=O)c1ccc(cc1)N1CCC(CC1)c1ccsc1

$$$$

  CDD

  0  0  0  0  0  0            999 V2000
M  END
> <Molecule Name>
CVD-0003844

> <SMILES>
NS(=O)(=O)c1ccc(cc1)N1CCC(CC1)c1ccncc1

$$$$

  CDD

  0  0  0  0  0  0            999 V2000
M  END
> <Molecule Name>
CVD-0003843

> <SMILES>
NS(=O)(=O)c1ccc(cc1)N1CCC(CO)CC1

$$$$

  CDD

  0  0  0  0  0  0            999 V2000
M  END
> <Molecule Name>
CVD-0003842

> <SMILES>
NS(=O)(=O)c1ccc(cc1)N1CCC(CC1)N1CC(c2ccccc2)c2ccccc2C1

$$$$

  CDD

  0  0  0  0  0  0            999 V2000
M  END
> <Molecule Name>
CVD-0003841

> <SMILES>
NS(=O)(=O)c1ccc(cc1)N1CCC(CC1)N1CCSCC1

$$$$

  CDD

  0  0  0  0  0  0            999 V2000
M  END
> <Molecule Name>
CVD-0003840

> <SMILES>
NS(=O)(=O)c1ccc(cc1)N1CCC(CC1)N1CCCCCC1

$$$$

  CDD

  0  0  0  0  0  0            999 V2000
M  END
> <Molecule Name>
CVD-0003839

> <SMILES>
NS(=O)(=O)c1ccc(cc1)N1CCC(CC1)N1CCCCC1

$$$$

  CDD

  0  0  0  0  0  0            999 V2000
M  END
> <Molecule Name>
CVD-0003838

> <SMILES>
NS(=O)(=O)c1ccc(cc1)N1CCSCC1

$$$$

  CDD

  0  0  0  0  0  0            999 V2000
M  END
> <Molecule Name>
CVD-0003837

> <SMILES>
NS(=O)(=O)c1ccc(cc1)N1CCC(CN2CCC(CC2)c2cccc3ccccc23)CC1

$$$$

  CDD

  0  0  0  0  0  0            999 V2000
M  END
> <Molecule Name>
CVD-0003836

> <SMILES>
NS(=O)(=O)c1ccc(cc1)N1CCC(CN2CCC(CC2)c2cccc(F)c2)CC1

$$$$

  CDD

  0  0  0  0  0  0            999 V2000
M  END
> <Molecule Name>
CVD-0003835

> <SMILES>
CN(CC1CCN(CC1)c1ccc(cc1)S(N)(=O)=O)c1cccc(Cl)c1

$$$$

  CDD

  0  0  0  0  0  0            999 V2000
M  END
> <Molecule Name>
CVD-0003834

> <SMILES>
CC(N(C)C1CCN(CC1)c1ccc(cc1)S(N)(=O)=O)c1cccs1

$$$$

  CDD

  0  0  0  0  0  0            999 V2000
M  END
> <Molecule Name>
CVD-0003833

> <SMILES>
CC(N(C)C1CCN(CC1)c1ccc(cc1)S(N)(=O)=O)c1ccccc1C

$$$$

  CDD

  0  0  0  0  0  0            999 V2000
M  END
> <Molecule Name>
CVD-0003832

> <SMILES>
CC(N(C)C1CCN(CC1)c1ccc(cc1)S(N)(=O)=O)c1ccccc1

$$$$

  CDD

  0  0  0  0  0  0            999 V2000
M  END
> <Molecule Name>
CVD-0003831

> <SMILES>
CN([C@H]1CCC[C@H]1c1ccccc1)C1CCN(CC1)c1ccc(cc1)S(N)(=O)=O

$$$$

  CDD

  0  0  0  0  0  0            999 V2000
M  END
> <Molecule Name>
CVD-0003830

> <SMILES>
CN([C@H]1CCC[C@H]1c1cccc(C)c1)C1CCN(CC1)c1ccc(cc1)S(N)(=O)=O

$$$$

  CDD

  0  0  0  0  0  0            999 V2000
M  END
> <Molecule Name>
CVD-0003829

> <SMILES>
CN(CC1CCN(CC1)c1ccc(cc1)S(N)(=O)=O)c1cccc(C)c1

$$$$

  CDD

  0  0  0  0  0  0            999 V2000
M  END
> <Molecule Name>
CVD-0003828

> <SMILES>
CN(C1CCN(CC1)c1ccc(cc1)S(N)(=O)=O)c1ccccc1C

$$$$

  CDD

  0  0  0  0  0  0            999 V2000
M  END
> <Molecule Name>
CVD-0003827

> <SMILES>
CN(C1CCN(CC1)c1ccc(cc1)S(N)(=O)=O)c1cccc(C)c1

$$$$

  CDD

  0  0  0  0  0  0            999 V2000
M  END
> <Molecule Name>
CVD-0003826

> <SMILES>
CN(C1CCN(CC1)c1ccc(cc1)S(N)(=O)=O)c1ccc(F)cc1

$$$$

  CDD

  0  0  0  0  0  0            999 V2000
M  END
> <Molecule Name>
CVD-0003825

> <SMILES>
CN(C1CCN(CC1)c1ccc(cc1)S(N)(=O)=O)c1ccc(C)cc1

$$$$

  CDD

  0  0  0  0  0  0            999 V2000
M  END
> <Molecule Name>
CVD-0003824

> <SMILES>
CN(C1CCCCC1)C1CCN(CC1)c1ccc(cc1)S(N)(=O)=O

$$$$

  CDD

  0  0  0  0  0  0            999 V2000
M  END
> <Molecule Name>
CVD-0003823

> <SMILES>
CCN(C)C1CCN(CC1)c1ccc(cc1)S(N)(=O)=O

$$$$

  CDD

  0  0  0  0  0  0            999 V2000
M  END
> <Molecule Name>
CVD-0003822

> <SMILES>
CC(C)N(C)C1CCN(CC1)c1ccc(cc1)S(N)(=O)=O

$$$$

  CDD

  0  0  0  0  0  0            999 V2000
M  END
> <Molecule Name>
CVD-0003821

> <SMILES>
NS(=O)(=O)c1ccc(cc1)N1CCC(CC1)N1CCC(CC1)Sc1cccc2ccccc12

$$$$

  CDD

  0  0  0  0  0  0            999 V2000
M  END
> <Molecule Name>
CVD-0003820

> <SMILES>
NS(=O)(=O)c1ccc(cc1)N1CCC(CC1)N1CCC(CC1)c1ccc(cc1)-c1ccccc1

$$$$

  CDD

  0  0  0  0  0  0            999 V2000
M  END
> <Molecule Name>
CVD-0003819

> <SMILES>
NS(=O)(=O)c1ccc(cc1)N1CCC(CC1)c1nc2c(cccc2s1)-c1ccccc1

$$$$

  CDD

  0  0  0  0  0  0            999 V2000
M  END
> <Molecule Name>
CVD-0003818

> <SMILES>
CN(CC1CCN(CC1)c1ccc(cc1)S(N)(=O)=O)c1ccc(F)cc1

$$$$

  CDD

  0  0  0  0  0  0            999 V2000
M  END
> <Molecule Name>
CVD-0003817

> <SMILES>
CC(NC1CCN(CC1)c1ccc(cc1)S(N)(=O)=O)c1cccc(C)c1

$$$$

  CDD

  0  0  0  0  0  0            999 V2000
M  END
> <Molecule Name>
CVD-0003816

> <SMILES>
CC(NC1CCN(CC1)c1ccc(cc1)S(N)(=O)=O)c1ccc(F)cc1

$$$$

  CDD

  0  0  0  0  0  0            999 V2000
M  END
> <Molecule Name>
CVD-0003815

> <SMILES>
CC(NC1CCN(CC1)c1ccc(cc1)S(N)(=O)=O)c1ccc(C)cc1

$$$$

  CDD

  0  0  0  0  0  0            999 V2000
M  END
> <Molecule Name>
CVD-0003814

> <SMILES>
NS(=O)(=O)c1ccc(cc1)N1CCC(CC1)NCc1cccs1

$$$$

  CDD

  0  0  0  0  0  0            999 V2000
M  END
> <Molecule Name>
CVD-0003813

> <SMILES>
NS(=O)(=O)c1ccc(cc1)N1CCC(CC1)NCc1ccc(Cl)s1

$$$$

  CDD

  0  0  0  0  0  0            999 V2000
M  END
> <Molecule Name>
CVD-0003812

> <SMILES>
NS(=O)(=O)c1ccc(cc1)N1CCC(CC1)NCc1ccc(Br)s1

$$$$

  CDD

  0  0  0  0  0  0            999 V2000
M  END
> <Molecule Name>
CVD-0003811

> <SMILES>
NS(=O)(=O)c1ccc(cc1)N1CCC(CC1)NCC1CCCCC1

$$$$

  CDD

  0  0  0  0  0  0            999 V2000
M  END
> <Molecule Name>
CVD-0003810

> <SMILES>
NS(=O)(=O)c1ccc(cc1)N1CCC(CC1)NC1(CCCC1)c1cccs1

$$$$

  CDD

  0  0  0  0  0  0            999 V2000
M  END
> <Molecule Name>
CVD-0003809

> <SMILES>
NS(=O)(=O)c1ccc(cc1)N1CCC(CC1)NC1(CCCC1)c1ccsc1

$$$$

  CDD

  0  0  0  0  0  0            999 V2000
M  END
> <Molecule Name>
CVD-0003808

> <SMILES>
Cc1ccccc1C1(CCCC1)NC1CCN(CC1)c1ccc(cc1)S(N)(=O)=O

$$$$

  CDD

  0  0  0  0  0  0            999 V2000
M  END
> <Molecule Name>
CVD-0003807

> <SMILES>
CN(CC1CCN(CC1)c1ccc(cc1)S(N)(=O)=O)c1ccc(C)cc1

$$$$

  CDD

  0  0  0  0  0  0            999 V2000
M  END
> <Molecule Name>
CVD-0003806

> <SMILES>
NS(=O)(=O)c1ccc(cc1)N1CCC(CC1)NC1(CCCC1)c1ccccc1

$$$$

  CDD

  0  0  0  0  0  0            999 V2000
M  END
> <Molecule Name>
CVD-0003805

> <SMILES>
NS(=O)(=O)c1ccc(cc1)N1CCC(CC1)NC1(CCCC1)c1cccc2ccccc12

$$$$

  CDD

  0  0  0  0  0  0            999 V2000
M  END
> <Molecule Name>
CVD-0003804

> <SMILES>
NS(=O)(=O)c1ccc(cc1)N1CCC(CC1)NC1(CCCC1)c1cccc(F)c1

$$$$

  CDD

  0  0  0  0  0  0            999 V2000
M  END
> <Molecule Name>
CVD-0003803

> <SMILES>
NS(=O)(=O)c1ccc(cc1)N1CCC(CC1)NC1(CCCC1)c1cccc(Cl)c1

$$$$

  CDD

  0  0  0  0  0  0            999 V2000
M  END
> <Molecule Name>
CVD-0003802

> <SMILES>
NS(=O)(=O)c1ccc(cc1)N1CCC(CC1)Nc1ccc(cc1)-c1ccsc1

$$$$

  CDD

  0  0  0  0  0  0            999 V2000
M  END
> <Molecule Name>
CVD-0003801

> <SMILES>
NS(=O)(=O)c1ccc(cc1)N1CCC(CC1)Nc1cccc(c1)-c1ccc(Br)s1

$$$$

  CDD

  0  0  0  0  0  0            999 V2000
M  END
> <Molecule Name>
CVD-0003800

> <SMILES>
NS(=O)(=O)c1ccc(cc1)N1CCC(CC1)Nc1cccs1

$$$$

  CDD

  0  0  0  0  0  0            999 V2000
M  END
> <Molecule Name>
CVD-0003799

> <SMILES>
NS(=O)(=O)c1ccc(cc1)N1CCC(CC1)Nc1ccc(Br)s1

$$$$

  CDD

  0  0  0  0  0  0            999 V2000
M  END
> <Molecule Name>
CVD-0003798

> <SMILES>
NS(=O)(=O)c1ccc(cc1)N1CCC(CC1)Nc1ccsc1

$$$$

  CDD

  0  0  0  0  0  0            999 V2000
M  END
> <Molecule Name>
CVD-0003797

> <SMILES>
Cc1ccccc1NC1CCN(CC1)c1ccc(cc1)S(N)(=O)=O

$$$$

  CDD

  0  0  0  0  0  0            999 V2000
M  END
> <Molecule Name>
CVD-0003796

> <SMILES>
CN(CC1CCN(CC1)c1ccc(cc1)S(N)(=O)=O)c1cccs1

$$$$

  CDD

  0  0  0  0  0  0            999 V2000
M  END
> <Molecule Name>
CVD-0003795

> <SMILES>
NS(=O)(=O)c1ccc(cc1)N1CCC(CC1)Nc1ccccc1

$$$$

  CDD

  0  0  0  0  0  0            999 V2000
M  END
> <Molecule Name>
CVD-0003794

> <SMILES>
NS(=O)(=O)c1ccc(cc1)N1CCC(CC1)Nc1cccc2ccccc12

$$$$

  CDD

  0  0  0  0  0  0            999 V2000
M  END
> <Molecule Name>
CVD-0003793

> <SMILES>
Cc1cccc(NC2CCN(CC2)c2ccc(cc2)S(N)(=O)=O)c1

$$$$

  CDD

  0  0  0  0  0  0            999 V2000
M  END
> <Molecule Name>
CVD-0003792

> <SMILES>
NS(=O)(=O)c1ccc(cc1)N1CCC(CC1)Nc1ccc(F)cc1

$$$$

  CDD

  0  0  0  0  0  0            999 V2000
M  END
> <Molecule Name>
CVD-0003791

> <SMILES>
Cc1ccc(NC2CCN(CC2)c2ccc(cc2)S(N)(=O)=O)cc1

$$$$

  CDD

  0  0  0  0  0  0            999 V2000
M  END
> <Molecule Name>
CVD-0003790

> <SMILES>
NS(=O)(=O)c1ccc(cc1)N1CCC(CC1)NC1CCCCC1

$$$$

  CDD

  0  0  0  0  0  0            999 V2000
M  END
> <Molecule Name>
CVD-0003789

> <SMILES>
CC(C)NC1CCN(CC1)c1ccc(cc1)S(N)(=O)=O

$$$$

  CDD

  0  0  0  0  0  0            999 V2000
M  END
> <Molecule Name>
CVD-0003788

> <SMILES>
NS(=O)(=O)c1ccc(cc1)N1CCC(COc2cccs2)CC1

$$$$

  CDD

  0  0  0  0  0  0            999 V2000
M  END
> <Molecule Name>
CVD-0003787

> <SMILES>
NS(=O)(=O)c1ccc(cc1)N1CCC(COc2ccc(Br)s2)CC1

$$$$

  CDD

  0  0  0  0  0  0            999 V2000
M  END
> <Molecule Name>
CVD-0003786

> <SMILES>
CCOCC1CCN(CC1)c1ccc(cc1)S(N)(=O)=O

$$$$

  CDD

  0  0  0  0  0  0            999 V2000
M  END
> <Molecule Name>
CVD-0003785

> <SMILES>
CN(CC1CCN(CC1)c1ccc(cc1)S(N)(=O)=O)c1ccc(Cl)s1

$$$$

  CDD

  0  0  0  0  0  0            999 V2000
M  END
> <Molecule Name>
CVD-0003784

> <SMILES>
NS(=O)(=O)c1ccc(cc1)N1CCC(COc2ccsc2)CC1

$$$$

  CDD

  0  0  0  0  0  0            999 V2000
M  END
> <Molecule Name>
CVD-0003783

> <SMILES>
NS(=O)(=O)c1ccc(cc1)N1CCC(COc2cccc(F)c2)CC1

$$$$

  CDD

  0  0  0  0  0  0            999 V2000
M  END
> <Molecule Name>
CVD-0003782

> <SMILES>
NS(=O)(=O)c1ccc(cc1)N1CCC(COc2cccc(Cl)c2)CC1

$$$$

  CDD

  0  0  0  0  0  0            999 V2000
M  END
> <Molecule Name>
CVD-0003781

> <SMILES>
Cc1cccc(OCC2CCN(CC2)c2ccc(cc2)S(N)(=O)=O)c1

$$$$

  CDD

  0  0  0  0  0  0            999 V2000
M  END
> <Molecule Name>
CVD-0003780

> <SMILES>
Cc1ccc(OCC2CCN(CC2)c2ccc(cc2)S(N)(=O)=O)cc1

$$$$

  CDD

  0  0  0  0  0  0            999 V2000
M  END
> <Molecule Name>
CVD-0003779

> <SMILES>
NS(=O)(=O)c1ccc(cc1)N1CCC(CN2CCC(CC2)c2ccc(Cl)s2)CC1

$$$$

  CDD

  0  0  0  0  0  0            999 V2000
M  END
> <Molecule Name>
CVD-0003778

> <SMILES>
NS(=O)(=O)c1ccc(cc1)N1CCC(CN2CCC(CC2)c2ccc(Br)s2)CC1

$$$$

  CDD

  0  0  0  0  0  0            999 V2000
M  END
> <Molecule Name>
CVD-0003777

> <SMILES>
NS(=O)(=O)c1ccc(cc1)N1CCC(CN2CCC(CC2)c2ccsc2)CC1

$$$$

  CDD

  0  0  0  0  0  0            999 V2000
M  END
> <Molecule Name>
CVD-0003776

> <SMILES>
Cc1ccccc1C1CCN(CC2CCN(CC2)c2ccc(cc2)S(N)(=O)=O)CC1

$$$$

  CDD

  0  0  0  0  0  0            999 V2000
M  END
> <Molecule Name>
CVD-0003775

> <SMILES>
NS(=O)(=O)c1ccc(cc1)N1CCC(CN2CCC(CC2)c2ccccc2)CC1

$$$$

  CDD

  0  0  0  0  0  0            999 V2000
M  END
> <Molecule Name>
CVD-0003774

> <SMILES>
CN(CC1CCN(CC1)c1ccc(cc1)S(N)(=O)=O)c1ccc(Br)s1

$$$$

  CDD

  0  0  0  0  0  0            999 V2000
M  END
> <Molecule Name>
CVD-0003773

> <SMILES>
O=C(Nc1ccccc1)Nc1cnccc1C1(CCCCC1)C#CC1CCCC1

$$$$

  CDD

  0  0  0  0  0  0            999 V2000
M  END
> <Molecule Name>
CVD-0003772

> <SMILES>
N#Cc1ccccc1CNC1(CCCCC1)C#CC1CCCC1

$$$$

  CDD

  0  0  0  0  0  0            999 V2000
M  END
> <Molecule Name>
CVD-0003771

> <SMILES>
ClCC(=O)N1CCC(CC1)NC1(CCCCC1)C#CC1CCCCC1

$$$$

  CDD

  0  0  0  0  0  0            999 V2000
M  END
> <Molecule Name>
CVD-0003770

> <SMILES>
OC1CCC(CC1)N(C(=O)Cc1cccnc1)C1(CCCCC1)C#CC1CCCCC1

$$$$

  CDD

  0  0  0  0  0  0            999 V2000
M  END
> <Molecule Name>
CVD-0003769

> <SMILES>
NS(=O)(=O)c1cccc(c1)C1(Cc2ccc3ccccc3c2)CCCCC1

$$$$

  CDD

  0  0  0  0  0  0            999 V2000
M  END
> <Molecule Name>
CVD-0003768

> <SMILES>
NS(=O)(=O)c1cccc(c1)C1(CCCCC1)c1ccc2ccccc2c1

$$$$

  CDD

  0  0  0  0  0  0            999 V2000
M  END
> <Molecule Name>
CVD-0003767

> <SMILES>
Cc1ccnc2[nH]c(CC3CCN(CC3)C(=O)CCl)nc12

$$$$

  CDD

  0  0  0  0  0  0            999 V2000
M  END
> <Molecule Name>
CVD-0003766

> <SMILES>
OC1CCC(CC1)N(C(=O)Cc1cccnc1)C1(CCCCC1)c1ccccc1

$$$$

  CDD

  0  0  0  0  0  0            999 V2000
M  END
> <Molecule Name>
CVD-0003765

> <SMILES>
Cc1ncc(s1)C1(Cc2nc3c(C)ccnc3[nH]2)CCCCC1

$$$$

  CDD

  0  0  0  0  0  0            999 V2000
M  END
> <Molecule Name>
CVD-0003764

> <SMILES>
ClCC(=O)N1CCC(CC1)c1nc(nc2ccccc12)-c1cccnc1

$$$$

  CDD

  0  0  0  0  0  0            999 V2000
M  END
> <Molecule Name>
CVD-0003763

> <SMILES>
ClCC(=O)N1CCC(CC1)N1CCN(CC1)C(=O)CCl

$$$$

  CDD

  0  0  0  0  0  0            999 V2000
M  END
> <Molecule Name>
CVD-0003762

> <SMILES>
Oc1ccccc1NC(=O)C1(CCCCC1)C#Cc1ccccn1

$$$$

  CDD

  0  0  0  0  0  0            999 V2000
M  END
> <Molecule Name>
CVD-0003761

> <SMILES>
N#Cc1ccc(NCC2(CCCCC2)C#Cc2ccccn2)nc1

$$$$

  CDD

  0  0  0  0  0  0            999 V2000
M  END
> <Molecule Name>
CVD-0003760

> <SMILES>
OCc1ccncc1-c1cc(Cc2ccc3ccccc3c2)ccn1

$$$$

  CDD

  0  0  0  0  0  0            999 V2000
M  END
> <Molecule Name>
CVD-0003759

> <SMILES>
N#Cc1ccccc1CNC1(CCCCC1)C#Cc1cccnc1

$$$$

  CDD

  0  0  0  0  0  0            999 V2000
M  END
> <Molecule Name>
CVD-0003758

> <SMILES>
N#Cc1ccccc1CNC1(CCCCC1)C#Cc1ccccn1

$$$$

  CDD

  0  0  0  0  0  0            999 V2000
M  END
> <Molecule Name>
CVD-0003757

> <SMILES>
Cc1cc2ncn(c2cc1C)C1(CCCCC1)C#CC1CCCCC1

$$$$

  CDD

  0  0  0  0  0  0            999 V2000
M  END
> <Molecule Name>
CVD-0003756

> <SMILES>
OC(=O)c1nc(Cl)[nH]c1CCC1(CCCCC1)C#CC1CCCC1

$$$$

  CDD

  0  0  0  0  0  0            999 V2000
M  END
> <Molecule Name>
CVD-0003755

> <SMILES>
Cc1ccnc2[nH]c(CC3(CCCCC3)c3cccnc3)nc12

$$$$

  CDD

  0  0  0  0  0  0            999 V2000
M  END
> <Molecule Name>
CVD-0003754

> <SMILES>
Cc1ncc(s1)C1(CCCCC1)N1CCN(CC1)C(=O)CCl

$$$$

  CDD

  0  0  0  0  0  0            999 V2000
M  END
> <Molecule Name>
CVD-0003753

> <SMILES>
ClCC(=O)N1CCN(CC1)C1(CCCCC1)c1cccnc1

$$$$

  CDD

  0  0  0  0  0  0            999 V2000
M  END
> <Molecule Name>
CVD-0003752

> <SMILES>
ClCC(=O)N1CCN(CC1)C1(CCCCC1)c1ccccc1

$$$$

  CDD

  0  0  0  0  0  0            999 V2000
M  END
> <Molecule Name>
CVD-0003751

> <SMILES>
Cc1ccc(C)c(c1)S(=O)(=O)N1CCN(CC1)C(=O)CCl

$$$$

  CDD

  0  0  0  0  0  0            999 V2000
M  END
> <Molecule Name>
CVD-0003750

> <SMILES>
ClCC(=O)N1CCC(CC1)NC1(CCCCC1)c1cccnc1

$$$$

  CDD

  0  0  0  0  0  0            999 V2000
M  END
> <Molecule Name>
CVD-0003749

> <SMILES>
Cc1ccc(cc1)S(=O)(=O)NC1CCN(CC1)C(=O)CCl

$$$$

  CDD

  0  0  0  0  0  0            999 V2000
M  END
> <Molecule Name>
CVD-0003748

> <SMILES>
Fc1cccc(F)c1S(=O)(=O)NC(=O)Nc1ccccc1

$$$$

  CDD

  0  0  0  0  0  0            999 V2000
M  END
> <Molecule Name>
CVD-0003747

> <SMILES>
Cc1ccc(c(C)c1)S(=O)(=O)NCc1ccccc1C#N

$$$$

  CDD

  0  0  0  0  0  0            999 V2000
M  END
> <Molecule Name>
CVD-0003746

> <SMILES>
Cn1ccc2cccc(c12)C1(CCCCC1)C#Cc1ccccn1

$$$$

  CDD

  0  0  0  0  0  0            999 V2000
M  END
> <Molecule Name>
CVD-0003745

> <SMILES>
OCc1ccncc1-c1cc(ccn1)C1(CCCCC1)C#Cc1ccccn1

$$$$

  CDD

  0  0  0  0  0  0            999 V2000
M  END
> <Molecule Name>
CVD-0003744

> <SMILES>
Cc1ccnc2[nH]c(nc12)C1(CCCCC1)C#CC1CCCCC1

$$$$

  CDD

  0  0  0  0  0  0            999 V2000
M  END
> <Molecule Name>
CVD-0003743

> <SMILES>
OCc1ccncc1-c1cc(ccn1)C1(CCCCC1)c1ccccc1

$$$$

  CDD

  0  0  0  0  0  0            999 V2000
M  END
> <Molecule Name>
CVD-0003742

> <SMILES>
Cc1cc2ncn(c2cc1C)C1(CCCCC1)c1cccnc1

$$$$

  CDD

  0  0  0  0  0  0            999 V2000
M  END
> <Molecule Name>
CVD-0003741

> <SMILES>
Cc1ccc(C)c(c1)S(=O)(=O)NCc1ccccc1C#N

$$$$

  CDD

  0  0  0  0  0  0            999 V2000
M  END
> <Molecule Name>
CVD-0003740

> <SMILES>
Clc1ccc(cc1)S(=O)(=O)NC(=O)Nc1ccccc1

$$$$

  CDD

  0  0  0  0  0  0            999 V2000
M  END
> <Molecule Name>
CVD-0003739

> <SMILES>
Cc1ccc(c(C)c1)S(=O)(=O)NC(=O)Nc1ccccc1

$$$$

  CDD

  0  0  0  0  0  0            999 V2000
M  END
> <Molecule Name>
CVD-0003738

> <SMILES>
OC1CCC(CC1)N(CC1CCCCC1)C1CCCN(C1)C(=O)C=C

$$$$

  CDD

  0  0  0  0  0  0            999 V2000
M  END
> <Molecule Name>
CVD-0003737

> <SMILES>
Cn1ccc2cccc(N(Cc3ccc(Cl)s3)c3cccc(c3)S(N)(=O)=O)c12

$$$$

  CDD

  0  0  0  0  0  0            999 V2000
M  END
> <Molecule Name>
CVD-0003736

> <SMILES>
OC1CCC(CC1)N(C(=O)c1ccccc1)S(=O)(=O)c1ccc(Cl)cc1

$$$$

  CDD

  0  0  0  0  0  0            999 V2000
M  END
> <Molecule Name>
CVD-0003735

> <SMILES>
OC1CCC(CC1)N(Cc1ccccc1C#N)C1CCN(CC1)C(=O)CCl

$$$$

  CDD

  0  0  0  0  0  0            999 V2000
M  END
> <Molecule Name>
CVD-0003734

> <SMILES>
OC1CCC(CC1)N(CC1CCCCC1)C1CCCN(C1)C(=O)CCl

$$$$

  CDD

  0  0  0  0  0  0            999 V2000
M  END
> <Molecule Name>
CVD-0003733

> <SMILES>
OC1CCC(CC1)N(C(=O)c1ccccc1)c1cccc2ccccc12

$$$$

  CDD

  0  0  0  0  0  0            999 V2000
M  END
> <Molecule Name>
CVD-0003732

> <SMILES>
COc1ccc(cc1)C1(CC(=O)N2CCC(CC2)C(N)=O)CCCCC1

$$$$

  CDD

  0  0  0  0  0  0            999 V2000
M  END
> <Molecule Name>
CVD-0003731

> <SMILES>
Cc1c(N)cncc1NC(=O)CC1(CCCCC1)c1cccc(Cl)c1

$$$$

  CDD

  0  0  0  0  0  0            999 V2000
M  END
> <Molecule Name>
CVD-0003730

> <SMILES>
OC1CCC(CC1)N(Cc1ccccc1C#N)C1CCN(COC(=O)C#C)CC1

$$$$

  CDD

  0  0  0  0  0  0            999 V2000
M  END
> <Molecule Name>
CVD-0003729

> <SMILES>
OC1CCC(CC1)N(CC1CCCCC1)C1CCCN(COC(=O)C#C)C1

$$$$

  CDD

  0  0  0  0  0  0            999 V2000
M  END
> <Molecule Name>
CVD-0003728

> <SMILES>
NC(=O)C(=O)N1CCCC(C1)N(CC1CCCCC1)C1CCC(O)CC1

$$$$

  CDD

  0  0  0  0  0  0            999 V2000
M  END
> <Molecule Name>
CVD-0003727

> <SMILES>
NC(=O)C(=O)N1CCC(CC1)N(Cc1ccccc1C#N)C1CCC(O)CC1

$$$$

  CDD

  0  0  0  0  0  0            999 V2000
M  END
> <Molecule Name>
CVD-0003726

> <SMILES>
OC1CCC(CC1)N(Cc1ccccc1C#N)C1CCN(CC1)C(=O)C=C

$$$$

  CDD

  0  0  0  0  0  0            999 V2000
M  END
> <Molecule Name>
CVD-0003725

> <SMILES>
Clc1cccc(c1)C1(CC(=O)Nc2ccc(cn2)C#N)CCCCC1

$$$$

  CDD

  0  0  0  0  0  0            999 V2000
M  END
> <Molecule Name>
CVD-0003724

> <SMILES>
Cc1ccc(CCCNS(C)(=O)=O)c(NC(=O)Nc2cccnc2)c1

$$$$

  CDD

  0  0  0  0  0  0            999 V2000
M  END
> <Molecule Name>
CVD-0003723

> <SMILES>
Cc1ccc(CCNS(C)(=O)=O)c(NC(=O)Nc2cccnc2)c1

$$$$

  CDD

  0  0  0  0  0  0            999 V2000
M  END
> <Molecule Name>
CVD-0003722

> <SMILES>
CS(=O)(=O)NCCc1ccc(Cl)cc1NC(=O)Nc1cccnc1

$$$$

  CDD

  0  0  0  0  0  0            999 V2000
M  END
> <Molecule Name>
CVD-0003721

> <SMILES>
CS(=O)(=O)NCCCc1ccc(cc1NC(=O)Nc1cccnc1)C#N

$$$$

  CDD

  0  0  0  0  0  0            999 V2000
M  END
> <Molecule Name>
CVD-0003720

> <SMILES>
CS(=O)(=O)NCCCc1ccc(Cl)cc1NC(=O)Nc1cccnc1

$$$$

  CDD

  0  0  0  0  0  0            999 V2000
M  END
> <Molecule Name>
CVD-0003719

> <SMILES>
CS(=O)(=O)NCCc1ccc(cc1NC(=O)Nc1cccnc1)C#N

$$$$

  CDD

  0  0  0  0  0  0            999 V2000
M  END
> <Molecule Name>
CVD-0003718

> <SMILES>
Cc1ccc(s1)C(N1CCN(CC1)C(=O)CCl)c1cccc(C)c1

$$$$

  CDD

  0  0  0  0  0  0            999 V2000
M  END
> <Molecule Name>
CVD-0003717

> <SMILES>
Fc1cccc(CCNC(=O)c2cccc3sc(NC(=O)CCl)nc23)c1

$$$$

  CDD

  0  0  0  0  0  0            999 V2000
M  END
> <Molecule Name>
CVD-0003716

> <SMILES>
CC(CCCc1ccc(cc1)S(N)(=O)=O)C(Cc1nnc(C)s1)C(=O)NC1=CN=C2C=CC=CC12

$$$$

  CDD

  0  0  0  0  0  0            999 V2000
M  END
> <Molecule Name>
CVD-0003715

> <SMILES>
CC(CCCc1ccc(cc1)S(N)(=O)=O)C(CCCNS(C)(=O)=O)C(=O)NC1=CN=C2C=CC=CC12

$$$$

  CDD

  0  0  0  0  0  0            999 V2000
M  END
> <Molecule Name>
CVD-0003714

> <SMILES>
CC(C)c1nnc(o1)C(Cc1ccc(O)cc1)NC(C)=O

$$$$

  CDD

  0  0  0  0  0  0            999 V2000
M  END
> <Molecule Name>
CVD-0003713

> <SMILES>
CC(CN1CCCC1)NC(=O)C(Cc1ccc(O)cc1)NC(C)=O

$$$$

  CDD

  0  0  0  0  0  0            999 V2000
M  END
> <Molecule Name>
CVD-0003712

> <SMILES>
CN(C(=O)C(Cc1ccc(O)cc1)NC(C)=O)c1nccs1

$$$$

  CDD

  0  0  0  0  0  0            999 V2000
M  END
> <Molecule Name>
CVD-0003711

> <SMILES>
CC(=O)NC(Cc1ccc(O)cc1)C(=O)NOCC(F)(F)C(F)F

$$$$

  CDD

  0  0  0  0  0  0            999 V2000
M  END
> <Molecule Name>
CVD-0003710

> <SMILES>
CCC(=C)COC(=O)C(Cc1ccc(O)cc1)NC(=O)CC(C)C

$$$$

  CDD

  0  0  0  0  0  0            999 V2000
M  END
> <Molecule Name>
CVD-0003709

> <SMILES>
Cc1ccc2cc([nH]c2c1)-c1n[nH]c2ccc(NS(=O)(=O)c3cccc(F)c3)cc12

$$$$

  CDD

  0  0  0  0  0  0            999 V2000
M  END
> <Molecule Name>
CVD-0003708

> <SMILES>
Fc1ccc(NC(=O)c2nc(cnc2Nc2cncnc2)C2CC2)c(C(=O)N2CCC2)c1F

$$$$

  CDD

  0  0  0  0  0  0            999 V2000
M  END
> <Molecule Name>
CVD-0003707

> <SMILES>
CNC(=O)Nc1sc2ccccc2c1C(=O)N1CCC(CC1)N1CCCC2(C1)C(=O)N1CCCCN1C2=O

$$$$

  CDD

  0  0  0  0  0  0            999 V2000
M  END
> <Molecule Name>
CVD-0003706

> <SMILES>
CC(=O)NS(=O)(=O)c1ccc(cc1)-c1cnc(N2CCOCC2)c2nc(COc3ccc4ccccc4n3)cn12

$$$$

  CDD

  0  0  0  0  0  0            999 V2000
M  END
> <Molecule Name>
CVD-0003705

> <SMILES>
OC(C(Cl)CCC1NC(=O)NC1=O)C1CCN(Cc2cccc(F)c2)CN1

$$$$

  CDD

  0  0  0  0  0  0            999 V2000
M  END
> <Molecule Name>
CVD-0003704

> <SMILES>
NC(=O)CCCC(Cl)C(=O)N1CCN(Cc2cccc(F)c2)CC1

$$$$

  CDD

  0  0  0  0  0  0            999 V2000
M  END
> <Molecule Name>
CVD-0003703

> <SMILES>
Fc1cccc(CN2CCN(CC2)C(=O)C(Cl)CCC2NC(=O)NC2=O)c1

$$$$

  CDD

  0  0  0  0  0  0            999 V2000
M  END
> <Molecule Name>
CVD-0003702

> <SMILES>
CC(C)(O)C1COC(Nc2cc(O)cc(O)c2)C(F)C1

$$$$

  CDD

  0  0  0  0  0  0            999 V2000
M  END
> <Molecule Name>
CVD-0003701

> <SMILES>
COC1CCC(CC1O)C1CCN(CN1)C(C)(C)O

$$$$

  CDD

  0  0  0  0  0  0            999 V2000
M  END
> <Molecule Name>
CVD-0003700

> <SMILES>
OC(CF)C1CNC(Cc2cccc(O)c2)c2c3CCNCc3ccc12

$$$$

  CDD

  0  0  0  0  0  0            999 V2000
M  END
> <Molecule Name>
CVD-0003699

> <SMILES>
OC(CF)C1CNC(Cc2cccc(O)c2)c2c3CCNCc3c(cc12)C1CCNC1

$$$$

  CDD

  0  0  0  0  0  0            999 V2000
M  END
> <Molecule Name>
CVD-0003698

> <SMILES>
OC(CF)C1CNC(Cc2cc(O)cc(O)c2)CC1CC1CCNC1

$$$$

  CDD

  0  0  0  0  0  0            999 V2000
M  END
> <Molecule Name>
CVD-0003697

> <SMILES>
OC(CCCC1NC(=O)NC1=O)C1CNC(Cc2cc(O)cc(O)c2)CC1CC1CCNC1

$$$$

  CDD

  0  0  0  0  0  0            999 V2000
M  END
> <Molecule Name>
CVD-0003696

> <SMILES>
NC(=O)\C=C\CCC(O)C1CNC(Cc2cc(O)cc(O)c2)CC1CC1CCNC1

$$$$

  CDD

  0  0  0  0  0  0            999 V2000
M  END
> <Molecule Name>
CVD-0003695

> <SMILES>
NC(=O)\C=C\CCC(O)C1COC(Nc2cc(O)cc(O)c2)C(F)C1

$$$$

  CDD

  0  0  0  0  0  0            999 V2000
M  END
> <Molecule Name>
CVD-0003694

> <SMILES>
OC(CCCC1NC(=O)NC1=O)C1COC(Nc2cc(O)cc(O)c2)C(F)C1

$$$$

  CDD

  0  0  0  0  0  0            999 V2000
M  END
> <Molecule Name>
CVD-0003693

> <SMILES>
OC(CCl)C1COC(Nc2cc(O)cc(O)c2)C(F)C1

$$$$

  CDD

  0  0  0  0  0  0            999 V2000
M  END
> <Molecule Name>
CVD-0003692

> <SMILES>
CC(C)(O)C1CC(F)C(Nc2cc(O)cc(O)c2)OC1CC1CCNC1

$$$$

  CDD

  0  0  0  0  0  0            999 V2000
M  END
> <Molecule Name>
CVD-0003691

> <SMILES>
OC(CCl)C1CC(F)C(Nc2cc(O)cc(O)c2)OC1CC1CCNC1

$$$$

  CDD

  0  0  0  0  0  0            999 V2000
M  END
> <Molecule Name>
CVD-0003690

> <SMILES>
OC(CCl)C1CNC(Cc2cc(O)cc(O)c2)CC1CC1CCNC1

$$$$

  CDD

  0  0  0  0  0  0            999 V2000
M  END
> <Molecule Name>
CVD-0003689

> <SMILES>
OC(CCCC1NC(=O)NC1=O)C1CCN(Cc2cccc(F)c2)CN1

$$$$

  CDD

  0  0  0  0  0  0            999 V2000
M  END
> <Molecule Name>
CVD-0003688

> <SMILES>
NC(=O)CCCCC(=O)N1CCN(Cc2cccc(F)c2)CC1

$$$$

  CDD

  0  0  0  0  0  0            999 V2000
M  END
> <Molecule Name>
CVD-0003687

> <SMILES>
CC(O)(CCCC1NC(=O)NC1=O)N1CCN(Cc2cccc(F)c2)CC1

$$$$

  CDD

  0  0  0  0  0  0            999 V2000
M  END
> <Molecule Name>
CVD-0003686

> <SMILES>
Fc1cccc(CN2CCN(CC2)C(=O)CCCC2NC(=O)NC2=O)c1

$$$$

  CDD

  0  0  0  0  0  0            999 V2000
M  END
> <Molecule Name>
CVD-0003685

> <SMILES>
CC(C)(O)c1cnc(\C=C\c2cc(O)cc(O)c2)cn1

$$$$

  CDD

  0  0  0  0  0  0            999 V2000
M  END
> <Molecule Name>
CVD-0003684

> <SMILES>
CC(C)(O)c1cnc(Nc2cc(O)cc(O)c2)cn1

$$$$

  CDD

  0  0  0  0  0  0            999 V2000
M  END
> <Molecule Name>
CVD-0003683

> <SMILES>
CC(C)(O)C1COC(\C=C\c2cc(O)cc(O)c2)C(F)C1

$$$$

  CDD

  0  0  0  0  0  0            999 V2000
M  END
> <Molecule Name>
CVD-0003682

> <SMILES>
OC(CCl)c1ccc(\C=C\c2cc(O)cc(O)c2)cc1

$$$$

  CDD

  0  0  0  0  0  0            999 V2000
M  END
> <Molecule Name>
CVD-0003681

> <SMILES>
NC(=O)\C=C\CCC(O)c1ccc(\C=C\c2cc(O)cc(O)c2)cc1

$$$$

  CDD

  0  0  0  0  0  0            999 V2000
M  END
> <Molecule Name>
CVD-0003680

> <SMILES>
OC(CCCCC1NC(=O)NC1=O)c1ccc(\C=C\c2cc(O)cc(O)c2)cc1

$$$$

  CDD

  0  0  0  0  0  0            999 V2000
M  END
> <Molecule Name>
CVD-0003679

> <SMILES>
CC(C)(O)c1ccc(\C=C\c2cc(O)cc(O)c2)cc1

$$$$

  CDD

  0  0  0  0  0  0            999 V2000
M  END
> <Molecule Name>
CVD-0003678

> <SMILES>
NC[C@H](N)[C@H]1OC(=O)C(N)=C1N

$$$$

  CDD

  0  0  0  0  0  0            999 V2000
M  END
> <Molecule Name>
CVD-0003677

> <SMILES>
CC(C)N(C)C(=O)C1CCN(CC1)C(=O)CCl

$$$$

  CDD

  0  0  0  0  0  0            999 V2000
M  END
> <Molecule Name>
CVD-0003676

> <SMILES>
ClCC(=O)N1CCC(CC1)C(=O)N1CCCCC1

$$$$

  CDD

  0  0  0  0  0  0            999 V2000
M  END
> <Molecule Name>
CVD-0003675

> <SMILES>
CNC(=O)N(C)CCN(C)C(=O)CCl

$$$$

  CDD

  0  0  0  0  0  0            999 V2000
M  END
> <Molecule Name>
CVD-0003674

> <SMILES>
CNC(=O)C1CCN(CC1)C(=O)CS(C)(=O)=O

$$$$

  CDD

  0  0  0  0  0  0            999 V2000
M  END
> <Molecule Name>
CVD-0003673

> <SMILES>
CNC(=O)C1CCN(CC1)C(=O)CF

$$$$

  CDD

  0  0  0  0  0  0            999 V2000
M  END
> <Molecule Name>
CVD-0003672

> <SMILES>
CCNC(=O)N1CCN(CC1)C(=O)CCl

$$$$

  CDD

  0  0  0  0  0  0            999 V2000
M  END
> <Molecule Name>
CVD-0003671

> <SMILES>
CC(C)N(C)C(=O)N1CCN(CC1)C(=O)CCl

$$$$

  CDD

  0  0  0  0  0  0            999 V2000
M  END
> <Molecule Name>
CVD-0003670

> <SMILES>
CN(C1CCN(CC1)C(=O)CCl)c1ccc(cn1)C#N

$$$$

  CDD

  0  0  0  0  0  0            999 V2000
M  END
> <Molecule Name>
CVD-0003669

> <SMILES>
CC(C)NC(=O)N(C)CCN(C)C(=O)CCl

$$$$

  CDD

  0  0  0  0  0  0            999 V2000
M  END
> <Molecule Name>
CVD-0003668

> <SMILES>
CC(C)c1coc(n1)N(C)CCN(C)C(=O)CCl

$$$$

  CDD

  0  0  0  0  0  0            999 V2000
M  END
> <Molecule Name>
CVD-0003667

> <SMILES>
CC(C)NC(=O)C1CCN(CC1)C(=O)CS(C)(=O)=O

$$$$

  CDD

  0  0  0  0  0  0            999 V2000
M  END
> <Molecule Name>
CVD-0003666

> <SMILES>
ClCC(=O)N1CCN(CC1)c1ncccn1

$$$$

  CDD

  0  0  0  0  0  0            999 V2000
M  END
> <Molecule Name>
CVD-0003665

> <SMILES>
CC(C)NC(=O)C1CCN(CC1)C(=O)CF

$$$$

  CDD

  0  0  0  0  0  0            999 V2000
M  END
> <Molecule Name>
CVD-0003664

> <SMILES>
CC(C)c1coc(n1)N1CCN(CC1)C(=O)CCl

$$$$

  CDD

  0  0  0  0  0  0            999 V2000
M  END
> <Molecule Name>
CVD-0003663

> <SMILES>
CC(C)NC(=O)N1CCN(CC1)C(=O)CCl

$$$$

  CDD

  0  0  0  0  0  0            999 V2000
M  END
> <Molecule Name>
CVD-0003662

> <SMILES>
FC(F)(F)c1n[nH]cc1OCCNS(=O)(=O)c1ccc(cc1)C1(CC1)C#N

$$$$

  CDD

  0  0  0  0  0  0            999 V2000
M  END
> <Molecule Name>
CVD-0003661

> <SMILES>
CNS(=O)(=O)c1ccc(cc1)C(C)NC(=O)C(=O)NC1CCC(CC1)NS(C)(=O)=O

$$$$

  CDD

  0  0  0  0  0  0            999 V2000
M  END
> <Molecule Name>
CVD-0003660

> <SMILES>
CC(C)N(C)S(=O)(=O)c1ccc(CNC(=O)C(=O)NCc2ccc(cc2)-c2noc(C)n2)cc1

$$$$

  CDD

  0  0  0  0  0  0            999 V2000
M  END
> <Molecule Name>
CVD-0003659

> <SMILES>
CCc1ccc(cc1)-c1noc(n1)C(C)NC(=O)C(=O)NC(C)c1ccc(cc1)S(=O)(=O)NC

$$$$

  CDD

  0  0  0  0  0  0            999 V2000
M  END
> <Molecule Name>
CVD-0003658

> <SMILES>
CNS(=O)(=O)c1ccc(cc1)C(C)NC(=O)C1CC1=C

$$$$

  CDD

  0  0  0  0  0  0            999 V2000
M  END
> <Molecule Name>
CVD-0003657

> <SMILES>
COc1ccccc1C1(CNC(=O)C(=O)NCc2ccc(cc2)-c2noc(C)n2)CCC1

$$$$

  CDD

  0  0  0  0  0  0            999 V2000
M  END
> <Molecule Name>
CVD-0003656

> <SMILES>
CNC(=O)c1ccc(CS(=O)(=O)NCC(F)(F)c2ccc(F)cc2F)cc1

$$$$

  CDD

  0  0  0  0  0  0            999 V2000
M  END
> <Molecule Name>
CVD-0003655

> <SMILES>
COCc1ncc(NS(=O)(=O)c2ccc(cc2)C2(CC2)C#N)c(C)n1

$$$$

  CDD

  0  0  0  0  0  0            999 V2000
M  END
> <Molecule Name>
CVD-0003654

> <SMILES>
COC(=O)c1sc(NS(=O)(=O)c2ccc(CF)cc2)nc1C(C)(C)C

$$$$

  CDD

  0  0  0  0  0  0            999 V2000
M  END
> <Molecule Name>
CVD-0003653

> <SMILES>
CC(C)[C@H](NS(=O)(=O)c1ccc(CF)cc1)C#N

$$$$

  CDD

  0  0  0  0  0  0            999 V2000
M  END
> <Molecule Name>
CVD-0003652

> <SMILES>
CNS(=O)(=O)c1ccc(cc1)C(C)NC(=O)NC(C)(C)C

$$$$

  CDD

  0  0  0  0  0  0            999 V2000
M  END
> <Molecule Name>
CVD-0003651

> <SMILES>
CC(NC(=O)OC(C)(C)C)c1ccc(CNC(=O)C=C)cc1

$$$$

  CDD

  0  0  0  0  0  0            999 V2000
M  END
> <Molecule Name>
CVD-0003650

> <SMILES>
COC(=O)c1ccc(c(Br)c1)S(=O)(=O)NCc1ccc(cc1)C(C)NC(=O)OC(C)(C)C

$$$$

  CDD

  0  0  0  0  0  0            999 V2000
M  END
> <Molecule Name>
CVD-0003649

> <SMILES>
[O-][N+](=O)c1ccc(c(c1)[N+]([O-])=O)-n1nc(cc1-c1ccc(Br)cc1)-c1ccc(F)cc1

$$$$

  CDD

  0  0  0  0  0  0            999 V2000
M  END
> <Molecule Name>
CVD-0003648

> <SMILES>
[O-][N+](=O)c1ccc(c(c1)[N+]([O-])=O)-n1nc(cc1-c1ccc(Br)cc1)-c1ccc(Cl)cc1

$$$$

  CDD

  0  0  0  0  0  0            999 V2000
M  END
> <Molecule Name>
CVD-0003647

> <SMILES>
[O-][N+](=O)c1ccc(c(c1)[N+]([O-])=O)-n1nc(cc1-c1ccc(Br)cc1)-c1ccc(Br)cc1

$$$$

  CDD

  0  0  0  0  0  0            999 V2000
M  END
> <Molecule Name>
CVD-0003646

> <SMILES>
[O-][N+](=O)c1ccc(c(c1)[N+]([O-])=O)-n1nc(cc1-c1ccc(Br)cc1)-c1ccccc1

$$$$

  CDD

  0  0  0  0  0  0            999 V2000
M  END
> <Molecule Name>
CVD-0003645

> <SMILES>
[O-][N+](=O)c1ccc(c(c1)[N+]([O-])=O)-n1nc(cc1-c1ccc(Cl)cc1)-c1ccc(F)cc1

$$$$

  CDD

  0  0  0  0  0  0            999 V2000
M  END
> <Molecule Name>
CVD-0003644

> <SMILES>
[O-][N+](=O)c1ccc(c(c1)[N+]([O-])=O)-n1nc(cc1-c1ccc(Cl)cc1)-c1ccc(Br)cc1

$$$$

  CDD

  0  0  0  0  0  0            999 V2000
M  END
> <Molecule Name>
CVD-0003643

> <SMILES>
[O-][N+](=O)c1ccc(c(c1)[N+]([O-])=O)-n1nc(cc1-c1ccc(Cl)cc1)-c1ccc(Cl)cc1

$$$$

  CDD

  0  0  0  0  0  0            999 V2000
M  END
> <Molecule Name>
CVD-0003642

> <SMILES>
[O-][N+](=O)c1ccc(c(c1)[N+]([O-])=O)-n1nc(cc1-c1ccc(Cl)cc1)-c1ccccc1

$$$$

  CDD

  0  0  0  0  0  0            999 V2000
M  END
> <Molecule Name>
CVD-0003641

> <SMILES>
[O-][N+](=O)c1ccc(cc1)-c1cc(nn1-c1ccc(cc1[N+]([O-])=O)[N+]([O-])=O)-c1ccc(Br)cc1

$$$$

  CDD

  0  0  0  0  0  0            999 V2000
M  END
> <Molecule Name>
CVD-0003640

> <SMILES>
[O-][N+](=O)c1ccc(c(c1)[N+]([O-])=O)-n1nc(cc1-c1ccc(F)cc1)-c1ccc(Br)cc1

$$$$

  CDD

  0  0  0  0  0  0            999 V2000
M  END
> <Molecule Name>
CVD-0003639

> <SMILES>
[O-][N+](=O)c1ccc(c(c1)[N+]([O-])=O)-n1nc(cc1-c1ccc(F)cc1)-c1ccc(F)cc1

$$$$

  CDD

  0  0  0  0  0  0            999 V2000
M  END
> <Molecule Name>
CVD-0003638

> <SMILES>
[O-][N+](=O)c1ccc(c(c1)[N+]([O-])=O)-n1nc(cc1-c1ccc(F)cc1)-c1ccccc1

$$$$

  CDD

  0  0  0  0  0  0            999 V2000
M  END
> <Molecule Name>
CVD-0003637

> <SMILES>
[O-][N+](=O)c1ccc(c(c1)[N+]([O-])=O)-n1nc(cc1-c1ccccc1)-c1ccccc1

$$$$

  CDD

  0  0  0  0  0  0            999 V2000
M  END
> <Molecule Name>
CVD-0003636

> <SMILES>
CC(=O)N1CCN(CC2=CC=CC3N=C(CCN)C=C23)CC1

$$$$

  CDD

  0  0  0  0  0  0            999 V2000
M  END
> <Molecule Name>
CVD-0003635

> <SMILES>
CC(=O)NCCC1=NC2C=CC=C(CN3CCN(CC3)C(C)=O)C2=C1

$$$$

  CDD

  0  0  0  0  0  0            999 V2000
M  END
> <Molecule Name>
CVD-0003634

> <SMILES>
Cc1c(N)cncc1NC(=O)Nc1cccc(Cl)c1

$$$$

  CDD

  0  0  0  0  0  0            999 V2000
M  END
> <Molecule Name>
CVD-0003633

> <SMILES>
Cc1c(N)cncc1NC(=O)Nc1ccccc1

$$$$

  CDD

  0  0  0  0  0  0            999 V2000
M  END
> <Molecule Name>
CVD-0003632

> <SMILES>
Cc1c(N)cncc1NC(=O)NC1CCCCC1

$$$$

  CDD

  0  0  0  0  0  0            999 V2000
M  END
> <Molecule Name>
CVD-0003631

> <SMILES>
Cc1ccncc1NC(=O)Cc1cccc(Cl)c1

$$$$

  CDD

  0  0  0  0  0  0            999 V2000
M  END
> <Molecule Name>
CVD-0003630

> <SMILES>
Cc1ccncc1NC(=O)Cc1ccccc1

$$$$

  CDD

  0  0  0  0  0  0            999 V2000
M  END
> <Molecule Name>
CVD-0003629

> <SMILES>
Cc1c(N)cncc1NC(=O)Cc1cccc(Cl)c1

$$$$

  CDD

  0  0  0  0  0  0            999 V2000
M  END
> <Molecule Name>
CVD-0003628

> <SMILES>
Cc1ccncc1NC(=O)Nc1cccc(c1)C#N

$$$$

  CDD

  0  0  0  0  0  0            999 V2000
M  END
> <Molecule Name>
CVD-0003627

> <SMILES>
Cc1c(N)cncc1NC(=O)Nc1cccc(c1)C#N

$$$$

  CDD

  0  0  0  0  0  0            999 V2000
M  END
> <Molecule Name>
CVD-0003626

> <SMILES>
CC(C(=O)Nc1cnccc1C)c1cccc(c1)C#N

$$$$

  CDD

  0  0  0  0  0  0            999 V2000
M  END
> <Molecule Name>
CVD-0003625

> <SMILES>
CC(C(=O)Nc1cncc(N)c1C)c1cccc(c1)C#N

$$$$

  CDD

  0  0  0  0  0  0            999 V2000
M  END
> <Molecule Name>
CVD-0003624

> <SMILES>
Cc1ccncc1NC(=O)Cc1cccc(c1)C#N

$$$$

  CDD

  0  0  0  0  0  0            999 V2000
M  END
> <Molecule Name>
CVD-0003623

> <SMILES>
Cc1c(N)cncc1NC(=O)Cc1ccccc1

$$$$

  CDD

  0  0  0  0  0  0            999 V2000
M  END
> <Molecule Name>
CVD-0003622

> <SMILES>
Cc1c(N)cncc1NC(=O)Cc1cccc(c1)C#N

$$$$

  CDD

  0  0  0  0  0  0            999 V2000
M  END
> <Molecule Name>
CVD-0003621

> <SMILES>
CC(C(=O)Nc1cnccc1C)c1cccc(Cl)c1

$$$$

  CDD

  0  0  0  0  0  0            999 V2000
M  END
> <Molecule Name>
CVD-0003620

> <SMILES>
CC(C(=O)Nc1cnccc1C)c1ccccc1

$$$$

  CDD

  0  0  0  0  0  0            999 V2000
M  END
> <Molecule Name>
CVD-0003619

> <SMILES>
CC(C1CCCCC1)C(=O)Nc1cnccc1C

$$$$

  CDD

  0  0  0  0  0  0            999 V2000
M  END
> <Molecule Name>
CVD-0003618

> <SMILES>
CC(C(=O)Nc1cncc(N)c1C)c1cccc(Cl)c1

$$$$

  CDD

  0  0  0  0  0  0            999 V2000
M  END
> <Molecule Name>
CVD-0003617

> <SMILES>
CC(C(=O)Nc1cncc(N)c1C)c1ccccc1

$$$$

  CDD

  0  0  0  0  0  0            999 V2000
M  END
> <Molecule Name>
CVD-0003616

> <SMILES>
CC(C1CCCCC1)C(=O)Nc1cncc(N)c1C

$$$$

  CDD

  0  0  0  0  0  0            999 V2000
M  END
> <Molecule Name>
CVD-0003615

> <SMILES>
Cc1ccncc1NC(=O)Nc1cccc(Cl)c1

$$$$

  CDD

  0  0  0  0  0  0            999 V2000
M  END
> <Molecule Name>
CVD-0003614

> <SMILES>
Cc1c(N)cncc1NC(=O)CC1CCCCC1

$$$$

  CDD

  0  0  0  0  0  0            999 V2000
M  END
> <Molecule Name>
CVD-0003613

> <SMILES>
Clc1ccnc(CNC(=O)Cc2c[nH]c3ncccc23)c1

$$$$

  CDD

  0  0  0  0  0  0            999 V2000
M  END
> <Molecule Name>
CVD-0003612

> <SMILES>
O=C(Cc1c[nH]c2ncccc12)NCc1ccc(cc1)C#N

$$$$

  CDD

  0  0  0  0  0  0            999 V2000
M  END
> <Molecule Name>
CVD-0003611

> <SMILES>
Clc1ccc(CNC(=O)Cc2c[nH]c3ncccc23)cc1

$$$$

  CDD

  0  0  0  0  0  0            999 V2000
M  END
> <Molecule Name>
CVD-0003610

> <SMILES>
O=C(Cc1c[nH]c2ncccc12)NCc1cccc(c1)C#N

$$$$

  CDD

  0  0  0  0  0  0            999 V2000
M  END
> <Molecule Name>
CVD-0003609

> <SMILES>
Clc1cccc(CNC(=O)Cc2c[nH]c3ncccc23)c1

$$$$

  CDD

  0  0  0  0  0  0            999 V2000
M  END
> <Molecule Name>
CVD-0003608

> <SMILES>
NS(=O)(=O)c1ccc2scc(CN3CCC(O)CC3)c2c1

$$$$

  CDD

  0  0  0  0  0  0            999 V2000
M  END
> <Molecule Name>
CVD-0003607

> <SMILES>
Cc1ccncc1NC(=O)Nc1cc(cnc1CCNS(C)(=O)=O)C#N

$$$$

  CDD

  0  0  0  0  0  0            999 V2000
M  END
> <Molecule Name>
CVD-0003606

> <SMILES>
CCNc1ncc(cc1NC(=O)Nc1cnccc1C)C#N

$$$$

  CDD

  0  0  0  0  0  0            999 V2000
M  END
> <Molecule Name>
CVD-0003605

> <SMILES>
O=C(Cc1c[nH]c2ncccc12)NCc1ccc(cn1)C#N

$$$$

  CDD

  0  0  0  0  0  0            999 V2000
M  END
> <Molecule Name>
CVD-0003604

> <SMILES>
Clc1ccc(CNC(=O)Cc2c[nH]c3ncccc23)nc1

$$$$

  CDD

  0  0  0  0  0  0            999 V2000
M  END
> <Molecule Name>
CVD-0003603

> <SMILES>
O=C(Cc1c[nH]c2ncccc12)NCc1cc(ccn1)C#N

$$$$

  CDD

  0  0  0  0  0  0            999 V2000
M  END
> <Molecule Name>
CVD-0003602

> <SMILES>
FC(F)(F)c1ccc(cc1)N1CCN(CCNC(=O)NCc2ccccn2)CC1

$$$$

  CDD

  0  0  0  0  0  0            999 V2000
M  END
> <Molecule Name>
CVD-0003601

> <SMILES>
Cc1ccc(cc1)N1CCN(CCNC(=O)NCc2ccccn2)CC1

$$$$

  CDD

  0  0  0  0  0  0            999 V2000
M  END
> <Molecule Name>
CVD-0003600

> <SMILES>
O=C(NCCN1CCN(CC1)c1ccccc1)NCc1ccccn1

$$$$

  CDD

  0  0  0  0  0  0            999 V2000
M  END
> <Molecule Name>
CVD-0003599

> <SMILES>
CNS(=O)(=O)CCc1ccc2[nH]cc(C3CCN(C)CC3)c2c1

$$$$

  CDD

  0  0  0  0  0  0            999 V2000
M  END
> <Molecule Name>
CVD-0003598

> <SMILES>
CN1CCC[C@@H]1Cc1c[nH]c2ccc(CCS(=O)(=O)c3ccccc3)cc12

$$$$

  CDD

  0  0  0  0  0  0            999 V2000
M  END
> <Molecule Name>
CVD-0003597

> <SMILES>
C=CS(=O)(=O)N1CCCC(C1)c1cn(nn1)-c1ccc2nc[nH]c2c1

$$$$

  CDD

  0  0  0  0  0  0            999 V2000
M  END
> <Molecule Name>
CVD-0003596

> <SMILES>
C=CS(=O)(=O)N1CCCC(C1)C#C

$$$$

  CDD

  0  0  0  0  0  0            999 V2000
M  END
> <Molecule Name>
CVD-0003595

> <SMILES>
C=CS(=O)(=O)N1CCN(Cc2cn(nn2)-c2ccc3nc[nH]c3c2)CC1

$$$$

  CDD

  0  0  0  0  0  0            999 V2000
M  END
> <Molecule Name>
CVD-0003594

> <SMILES>
O=S(=O)(\C=C\c1ccccc1)N1CCN(CC#C)CC1

$$$$

  CDD

  0  0  0  0  0  0            999 V2000
M  END
> <Molecule Name>
CVD-0003593

> <SMILES>
C=CS(=O)(=O)N1CCN(CC#C)CC1

$$$$

  CDD

  0  0  0  0  0  0            999 V2000
M  END
> <Molecule Name>
CVD-0003592

> <SMILES>
C=CC(=O)N1CCN(CC#C)CC1

$$$$

  CDD

  0  0  0  0  0  0            999 V2000
M  END
> <Molecule Name>
CVD-0003591

> <SMILES>
ClCC(=O)N1CCN(CC#C)CC1

$$$$

  CDD

  0  0  0  0  0  0            999 V2000
M  END
> <Molecule Name>
CVD-0003590

> <SMILES>
ClCC(=O)N1CCOc2cccc(-c3cccnc3)c12

$$$$

  CDD

  0  0  0  0  0  0            999 V2000
M  END
> <Molecule Name>
CVD-0003589

> <SMILES>
ClCC(=O)N1CCCC2CN(CC12)C(=O)c1ccc[nH]1

$$$$

  CDD

  0  0  0  0  0  0            999 V2000
M  END
> <Molecule Name>
CVD-0003587

> <SMILES>
CS(=O)(=O)N1CCc2ccc(cc2C1)C1CN(Cc2ccccc12)C(=O)CCl

$$$$

  CDD

  0  0  0  0  0  0            999 V2000
M  END
> <Molecule Name>
CVD-0003586

> <SMILES>
ClCC(=O)N1CC(c2cccc(CNC(=O)N3CCOCC3)c2)c2ccccc2C1

$$$$

  CDD

  0  0  0  0  0  0            999 V2000
M  END
> <Molecule Name>
CVD-0003585

> <SMILES>
CNS(=O)(=O)c1ccc2ccc(CN3CCN(CC3)C(=O)CCl)cc2c1

$$$$

  CDD

  0  0  0  0  0  0            999 V2000
M  END
> <Molecule Name>
CVD-0003584

> <SMILES>
CS(=O)(=O)N1CCc2ccc(CN3CCN(CC3)C(=O)CCl)cc2C1

$$$$

  CDD

  0  0  0  0  0  0            999 V2000
M  END
> <Molecule Name>
CVD-0003583

> <SMILES>
CN(C)C(=O)c1ccc(CNS(C)(=O)=O)c(CN2CCN(CC2)C(=O)CCl)c1

$$$$

  CDD

  0  0  0  0  0  0            999 V2000
M  END
> <Molecule Name>
CVD-0003582

> <SMILES>
CC(NC(=O)CCl)c1cccc2c(CCNC(C)=O)cn(C)c12

$$$$

  CDD

  0  0  0  0  0  0            999 V2000
M  END
> <Molecule Name>
CVD-0003581

> <SMILES>
CC(NC(=O)CCl)c1ccc2c(CCNC(C)=O)cn(C)c2c1

$$$$

  CDD

  0  0  0  0  0  0            999 V2000
M  END
> <Molecule Name>
CVD-0003580

> <SMILES>
CC(NC(=O)CCl)c1ccc2ccc(NS(C)(=O)=O)cc2c1

$$$$

  CDD

  0  0  0  0  0  0            999 V2000
M  END
> <Molecule Name>
CVD-0003579

> <SMILES>
CC(NC(=O)CCl)c1ccccc1CNC(=O)N1CCOCC1

$$$$

  CDD

  0  0  0  0  0  0            999 V2000
M  END
> <Molecule Name>
CVD-0003578

> <SMILES>
CC(=O)NCCc1cn(C)c2c(CN3CCN(CC3)C(=O)CCl)cccc12

$$$$

  CDD

  0  0  0  0  0  0            999 V2000
M  END
> <Molecule Name>
CVD-0003577

> <SMILES>
Cn1cc(N2CCCC2C(N)=O)c(CN2CCN(CC2)C(=O)CCl)n1

$$$$

  CDD

  0  0  0  0  0  0            999 V2000
M  END
> <Molecule Name>
CVD-0003576

> <SMILES>
CC(=O)NCCc1cn(C)c2cc(CN3CCN(CC3)C(=O)CCl)ccc12

$$$$

  CDD

  0  0  0  0  0  0            999 V2000
M  END
> <Molecule Name>
CVD-0003575

> <SMILES>
CC(=O)Nc1ccc(cc1CN1CCN(CC1)C(=O)CCl)C#N

$$$$

  CDD

  0  0  0  0  0  0            999 V2000
M  END
> <Molecule Name>
CVD-0003574

> <SMILES>
CNC(=O)c1ccc(cc1CN1CCN(CC1)C(=O)CCl)C#N

$$$$

  CDD

  0  0  0  0  0  0            999 V2000
M  END
> <Molecule Name>
CVD-0003573

> <SMILES>
CC(=O)Nc1cc(CN2CCN(CC2)C(=O)CCl)cc(c1)C#N

$$$$

  CDD

  0  0  0  0  0  0            999 V2000
M  END
> <Molecule Name>
CVD-0003572

> <SMILES>
ClCC(=O)N1CCN(Cc2cccc3CCCNC(=O)c23)CC1

$$$$

  CDD

  0  0  0  0  0  0            999 V2000
M  END
> <Molecule Name>
CVD-0003571

> <SMILES>
ClCC(=O)N1CCN(Cc2cccc3CCNC(=O)Cc23)CC1

$$$$

  CDD

  0  0  0  0  0  0            999 V2000
M  END
> <Molecule Name>
CVD-0003570

> <SMILES>
CC(=O)N1CCCc2cccc(CN3CCN(CC3)C(=O)CCl)c2C1

$$$$

  CDD

  0  0  0  0  0  0            999 V2000
M  END
> <Molecule Name>
CVD-0003569

> <SMILES>
ClCC(=O)N1CCN(Cc2cccc(CNC(=O)N3CCOCC3)c2)CC1

$$$$

  CDD

  0  0  0  0  0  0            999 V2000
M  END
> <Molecule Name>
CVD-0003568

> <SMILES>
CC(=O)NCCCc1cn(C)c2cc(ccc12)C1CN(Cc2ccccc12)C(=O)CCl

$$$$

  CDD

  0  0  0  0  0  0            999 V2000
M  END
> <Molecule Name>
CVD-0003567

> <SMILES>
CNS(=O)(=O)c1ccc(C#N)c(c1)C1CN(Cc2ccccc12)C(=O)CCl

$$$$

  CDD

  0  0  0  0  0  0            999 V2000
M  END
> <Molecule Name>
CVD-0003566

> <SMILES>
NS(=O)(=O)c1ccc2CCCN(CC(=O)NCc3c[nH]c4ncccc34)Cc2c1

$$$$

  CDD

  0  0  0  0  0  0            999 V2000
M  END
> <Molecule Name>
CVD-0003565

> <SMILES>
NS(=O)(=O)c1ccc2CCCN(Cc2c1)C(=O)Cc1c[nH]c2ncccc12

$$$$

  CDD

  0  0  0  0  0  0            999 V2000
M  END
> <Molecule Name>
CVD-0003564

> <SMILES>
NS(=O)(=O)c1ccc2CCN(CC(=O)Nc3cccnc3)Cc2c1

$$$$

  CDD

  0  0  0  0  0  0            999 V2000
M  END
> <Molecule Name>
CVD-0003563

> <SMILES>
NS(=O)(=O)c1ccc2CCCN(CC(=O)Nc3cccnc3)c2c1

$$$$

  CDD

  0  0  0  0  0  0            999 V2000
M  END
> <Molecule Name>
CVD-0003562

> <SMILES>
NS(=O)(=O)c1ccc2CCN(Cc2c1)C(=O)Cc1c[nH]c2ncccc12

$$$$

  CDD

  0  0  0  0  0  0            999 V2000
M  END
> <Molecule Name>
CVD-0003561

> <SMILES>
NS(=O)(=O)c1ccc2CCCN(C(=O)Cc3c[nH]c4ncccc34)c2c1

$$$$

  CDD

  0  0  0  0  0  0            999 V2000
M  END
> <Molecule Name>
CVD-0003560

> <SMILES>
CC(=O)NCCc1c[nH]c2c(NCC(=O)Nc3cccnc3)cc(F)cc12

$$$$

  CDD

  0  0  0  0  0  0            999 V2000
M  END
> <Molecule Name>
CVD-0003559

> <SMILES>
CC(=O)NCCc1c[nH]c2c(cc(F)cc12)C(Nc1cccnc1)C(=O)Nc1ccncc1

$$$$

  CDD

  0  0  0  0  0  0            999 V2000
M  END
> <Molecule Name>
CVD-0003558

> <SMILES>
CS(=O)(=O)Cc1c[nH]c2c(cc(F)cc12)C(Nc1cccnc1)C(=O)Nc1ccncc1

$$$$

  CDD

  0  0  0  0  0  0            999 V2000
M  END
> <Molecule Name>
CVD-0003557

> <SMILES>
CS(=O)(=O)NCc1c[nH]c2c(CC(=O)Nc3ccncc3)cc(F)cc12

$$$$

  CDD

  0  0  0  0  0  0            999 V2000
M  END
> <Molecule Name>
CVD-0003556

> <SMILES>
CC(=O)NCCc1c[nH]c2c(CC(=O)Nc3ccncc3)cc(F)cc12

$$$$

  CDD

  0  0  0  0  0  0            999 V2000
M  END
> <Molecule Name>
CVD-0003555

> <SMILES>
O=C(Nc1c[nH]c2ncccc12)Nc1cccnc1

$$$$

  CDD

  0  0  0  0  0  0            999 V2000
M  END
> <Molecule Name>
CVD-0003554

> <SMILES>
NS(=O)(=O)c1ccc2N(CCCCc2c1)C(=O)Cc1c[nH]c2ncccc12

$$$$

  CDD

  0  0  0  0  0  0            999 V2000
M  END
> <Molecule Name>
CVD-0003553

> <SMILES>
NS(=O)(=O)c1ccc2CCCCN(C(=O)Cc3c[nH]c4ncccc34)c2c1

$$$$

  CDD

  0  0  0  0  0  0            999 V2000
M  END
> <Molecule Name>
CVD-0003552

> <SMILES>
CC(=O)NCCc1c[nH]c2c(cccc12)N1CCCC1C(N)=O

$$$$

  CDD

  0  0  0  0  0  0            999 V2000
M  END
> <Molecule Name>
CVD-0003551

> <SMILES>
NS(=O)(=O)c1ccc2N(CC(=O)Nc3cccnc3)CCCCc2c1

$$$$

  CDD

  0  0  0  0  0  0            999 V2000
M  END
> <Molecule Name>
CVD-0003550

> <SMILES>
NS(=O)(=O)c1ccc2CN(CC(=O)Nc3cccnc3)CCc2c1

$$$$

  CDD

  0  0  0  0  0  0            999 V2000
M  END
> <Molecule Name>
CVD-0003549

> <SMILES>
NS(=O)(=O)c1ccc2N(CC(=O)Nc3cccnc3)CCCc2c1

$$$$

  CDD

  0  0  0  0  0  0            999 V2000
M  END
> <Molecule Name>
CVD-0003548

> <SMILES>
CS(=O)(=O)NCC(CC(=O)Nc1cccnc1)c1ccccc1

$$$$

  CDD

  0  0  0  0  0  0            999 V2000
M  END
> <Molecule Name>
CVD-0003547

> <SMILES>
NS(=O)(=O)c1ccc2CCCN(CC(=O)Nc3cccnc3)Cc2c1

$$$$

  CDD

  0  0  0  0  0  0            999 V2000
M  END
> <Molecule Name>
CVD-0003546

> <SMILES>
O=C(Cn1cccn1)Nc1cccc(c1)N1CCCS1(=O)=O

$$$$

  CDD

  0  0  0  0  0  0            999 V2000
M  END
> <Molecule Name>
CVD-0003545

> <SMILES>
ClCC(=O)N1CCN(CC1)C(=O)NCc1ccc(cc1)C#N

$$$$

  CDD

  0  0  0  0  0  0            999 V2000
M  END
> <Molecule Name>
CVD-0003544

> <SMILES>
ClCC(=O)N1CCN(CC1)S(=O)(=O)NC(=O)c1ncccn1

$$$$

  CDD

  0  0  0  0  0  0            999 V2000
M  END
> <Molecule Name>
CVD-0003543

> <SMILES>
CNC(=O)NS(=O)(=O)N1CCN(CC1)C(=O)CCl

$$$$

  CDD

  0  0  0  0  0  0            999 V2000
M  END
> <Molecule Name>
CVD-0003542

> <SMILES>
Fc1cccc(F)c1S(=O)(=O)N1CCN(CC1)C(=O)Cc1c[nH]c2ncccc12

$$$$

  CDD

  0  0  0  0  0  0            999 V2000
M  END
> <Molecule Name>
CVD-0003541

> <SMILES>
Oc1ccccc1NC(=O)N1CCN(CC1)C(=O)Cn1cccn1

$$$$

  CDD

  0  0  0  0  0  0            999 V2000
M  END
> <Molecule Name>
CVD-0003540

> <SMILES>
Oc1ccccc1NS(=O)(=O)N1CCN(CC1)C(=O)CCl

$$$$

  CDD

  0  0  0  0  0  0            999 V2000
M  END
> <Molecule Name>
CVD-0003539

> <SMILES>
O=C(Cc1c[nH]c2ncccc12)N1CCC(CC1)N1CCCS1(=O)=O

$$$$

  CDD

  0  0  0  0  0  0            999 V2000
M  END
> <Molecule Name>
CVD-0003538

> <SMILES>
Oc1ccccc1NC(=O)N1CCN(CC1)C(=O)CCl

$$$$

  CDD

  0  0  0  0  0  0            999 V2000
M  END
> <Molecule Name>
CVD-0003537

> <SMILES>
N#C\N=C(/Nc1ccccc1)Nc1cccnc1

$$$$

  CDD

  0  0  0  0  0  0            999 V2000
M  END
> <Molecule Name>
CVD-0003536

> <SMILES>
CN(c1cccnc1)c1ccnc(Nc2ccccc2)n1

$$$$

  CDD

  0  0  0  0  0  0            999 V2000
M  END
> <Molecule Name>
CVD-0003535

> <SMILES>
FC(F)c1ccccc1CNc1nc2ccccc2[nH]1

$$$$

  CDD

  0  0  0  0  0  0            999 V2000
M  END
> <Molecule Name>
CVD-0003534

> <SMILES>
O=c1[nH]cccc1CNc1nc2ccccc2[nH]1

$$$$

  CDD

  0  0  0  0  0  0            999 V2000
M  END
> <Molecule Name>
CVD-0003533

> <SMILES>
Oc1ccccc1CNc1nc2c(cccc2[nH]1)C(=O)Nc1ccccc1

$$$$

  CDD

  0  0  0  0  0  0            999 V2000
M  END
> <Molecule Name>
CVD-0003532

> <SMILES>
CS(=O)(=O)Nc1ccc2[nH]c(cc2c1)C(=O)N1CCN(CC1)C(=O)CCl

$$$$

  CDD

  0  0  0  0  0  0            999 V2000
M  END
> <Molecule Name>
CVD-0003531

> <SMILES>
Oc1ccccc1CN1CCN(CC1)c1nc2ccccc2[nH]1

$$$$

  CDD

  0  0  0  0  0  0            999 V2000
M  END
> <Molecule Name>
CVD-0003530

> <SMILES>
CC(CNC(=O)C(C)Cc1c[nH]c2ccccc12)C(Cc1ccccc1)c1ccccc1

$$$$

  CDD

  0  0  0  0  0  0            999 V2000
M  END
> <Molecule Name>
CVD-0003529

> <SMILES>
CC(C)C1(O)CCC(C)=CC1

$$$$

  CDD

  0  0  0  0  0  0            999 V2000
M  END
> <Molecule Name>
CVD-0003528

> <SMILES>
CC1=CCC(CC1)C(C)(C)O

$$$$

  CDD

  0  0  0  0  0  0            999 V2000
M  END
> <Molecule Name>
CVD-0003527

> <SMILES>
CC(NC(=O)CCl)c1cc(Cl)ccc1Oc1cccc(c1)S(N)(=O)=O

$$$$

  CDD

  0  0  0  0  0  0            999 V2000
M  END
> <Molecule Name>
CVD-0003526

> <SMILES>
NS(=O)(=O)c1ccc2CCN(CC3CCN(CC3)C(=O)CC#N)Cc2c1

$$$$

  CDD

  0  0  0  0  0  0            999 V2000
M  END
> <Molecule Name>
CVD-0003525

> <SMILES>
NS(=O)(=O)c1ccc2CCN(CC3CCN(CC3)C(=O)C=C)Cc2c1

$$$$

  CDD

  0  0  0  0  0  0            999 V2000
M  END
> <Molecule Name>
CVD-0003524

> <SMILES>
NS(=O)(=O)c1ccc2CCN(CC3CCN(CC3)C(=O)CCl)Cc2c1

$$$$

  CDD

  0  0  0  0  0  0            999 V2000
M  END
> <Molecule Name>
CVD-0003523

> <SMILES>
NS(=O)(=O)c1cc2CN(CC3CCN(CC3)C(=O)CCl)CCc2cc1C(F)F

$$$$

  CDD

  0  0  0  0  0  0            999 V2000
M  END
> <Molecule Name>
CVD-0003522

> <SMILES>
CC1Cc2ccc(cc2CN1CC1CCN(CC1)C(=O)CCl)S(N)(=O)=O

$$$$

  CDD

  0  0  0  0  0  0            999 V2000
M  END
> <Molecule Name>
CVD-0003521

> <SMILES>
ClCC(=O)N1CCN(Cc2cc(Cl)ccc2CNC(=O)[C@@H]2CCCOC2)CC1

$$$$

  CDD

  0  0  0  0  0  0            999 V2000
M  END
> <Molecule Name>
CVD-0003520

> <SMILES>
ClCC(=O)N1CCN(Cc2cc(Cl)ccc2CNS(=O)(=O)N2CCOCC2)CC1

$$$$

  CDD

  0  0  0  0  0  0            999 V2000
M  END
> <Molecule Name>
CVD-0003519

> <SMILES>
ClCC(=O)N1CCN(Cc2cc(Cl)ccc2CNC(=O)N2CCOCC2)CC1

$$$$

  CDD

  0  0  0  0  0  0            999 V2000
M  END
> <Molecule Name>
CVD-0003518

> <SMILES>
Cc1cc(c[nH]c1=O)C1(CC(C1)C(N)=O)N1CCN(CC1)C(=O)CCl

$$$$

  CDD

  0  0  0  0  0  0            999 V2000
M  END
> <Molecule Name>
CVD-0003517

> <SMILES>
Cc1cc(cc(=O)[nH]1)C1(CC(C1)C(N)=O)N1CCN(CC1)C(=O)CCl

$$$$

  CDD

  0  0  0  0  0  0            999 V2000
M  END
> <Molecule Name>
CVD-0003516

> <SMILES>
ClCC(=O)N1CCN(Cc2cc(Cl)ccc2CNC(=O)N2CCNC(=O)C2)CC1

$$$$

  CDD

  0  0  0  0  0  0            999 V2000
M  END
> <Molecule Name>
CVD-0003515

> <SMILES>
NS(=O)(=O)CCNc1ncccc1CN1CCN(CC1)C(=O)CCl

$$$$

  CDD

  0  0  0  0  0  0            999 V2000
M  END
> <Molecule Name>
CVD-0003514

> <SMILES>
Clc1ccc(CNS(=O)(=O)N2CCOCC2)c(CN2CCN(CC2)C(=O)C=C)c1

$$$$

  CDD

  0  0  0  0  0  0            999 V2000
M  END
> <Molecule Name>
CVD-0003513

> <SMILES>
Clc1ccc(CNS(=O)(=O)N2CCOCC2)c(CN2CCN(CC2)C(=O)CC#N)c1

$$$$

  CDD

  0  0  0  0  0  0            999 V2000
M  END
> <Molecule Name>
CVD-0003512

> <SMILES>
NS(=O)(=O)Cc1nc2cccc(CN3CCN(CC3)C(=O)CCl)c2[nH]1

$$$$

  CDD

  0  0  0  0  0  0            999 V2000
M  END
> <Molecule Name>
CVD-0003511

> <SMILES>
Cc1cccc(CN2CCN(C[C@H]2CC(N)=O)C(=O)CCl)c1

$$$$

  CDD

  0  0  0  0  0  0            999 V2000
M  END
> <Molecule Name>
CVD-0003510

> <SMILES>
Cc1cc2CCN(CC3CCN(CC3)C(=O)CCl)Cc2cc1S(N)(=O)=O

$$$$

  CDD

  0  0  0  0  0  0            999 V2000
M  END
> <Molecule Name>
CVD-0003509

> <SMILES>
Cc1cccc(c1)C1(CC(C1)C(N)=O)N1CCN(CC1)C(=O)CCl

$$$$

  CDD

  0  0  0  0  0  0            999 V2000
M  END
> <Molecule Name>
CVD-0003508

> <SMILES>
Cc1ccncc1Cc1n[nH]cc1-c1nccc(C2CC2)c1C

$$$$

  CDD

  0  0  0  0  0  0            999 V2000
M  END
> <Molecule Name>
CVD-0003507

> <SMILES>
Cc1cc(Cc2cnccc2C)n[nH]1

$$$$

  CDD

  0  0  0  0  0  0            999 V2000
M  END
> <Molecule Name>
CVD-0003506

> <SMILES>
N#Cc1c[nH]nc1Cc1cccnc1

$$$$

  CDD

  0  0  0  0  0  0            999 V2000
M  END
> <Molecule Name>
CVD-0003505

> <SMILES>
Cc1[nH]nc2c(nc(Cc3cc(C)cc4ccnnc34)c(C#C)c12)-c1cnccc1C

$$$$

  CDD

  0  0  0  0  0  0            999 V2000
M  END
> <Molecule Name>
CVD-0003504

> <SMILES>
Cc1ccncc1-n1c2cc(c(cc2ccc1=O)C1CC1)S(N)(=O)=O

$$$$

  CDD

  0  0  0  0  0  0            999 V2000
M  END
> <Molecule Name>
CVD-0003503

> <SMILES>
Cc1nc(co1)-c1c(C#N)n(-c2cccnc2)c(=O)n1-c1cccc(F)c1

$$$$

  CDD

  0  0  0  0  0  0            999 V2000
M  END
> <Molecule Name>
CVD-0003502

> <SMILES>
CNC(=O)Cc1c(C)cccc1CN1CCN(CC1)C(=O)CCl

$$$$

  CDD

  0  0  0  0  0  0            999 V2000
M  END
> <Molecule Name>
CVD-0003501

> <SMILES>
Cc1ccncc1Cc1n[nH]cc1-c1c(C)c(cc2scnc12)C1CC1

$$$$

  CDD

  0  0  0  0  0  0            999 V2000
M  END
> <Molecule Name>
CVD-0003500

> <SMILES>
CS(=O)(=O)N(C[C@H]1CCN2[C@H](CCc3ccc(cc23)S(N)(=O)=O)C1)C1=CCC([C@H](O)N2CCSCC2)=C1NC(=O)CCl

$$$$

  CDD

  0  0  0  0  0  0            999 V2000
M  END
> <Molecule Name>
CVD-0003499

> <SMILES>
CN1[C@H](CCc2ccc(cc12)S(=O)(=O)C1=CCC=C1)c1ncn(C[C@@H]2CCOC2)c1Cc1cnco1

$$$$

  CDD

  0  0  0  0  0  0            999 V2000
M  END
> <Molecule Name>
CVD-0003498

> <SMILES>
CN1[C@H](CCc2ccc(cc12)S(N)(=O)=O)c1ccn(C[C@@H]2CCOC2)n1

$$$$

  CDD

  0  0  0  0  0  0            999 V2000
M  END
> <Molecule Name>
CVD-0003497

> <SMILES>
CCN(CC)c1cc(NC(=O)Cc2ccc(O)cc2)c(Nc2nccc(n2)C(N)=O)cc1NCCN(C)C

$$$$

  CDD

  0  0  0  0  0  0            999 V2000
M  END
> <Molecule Name>
CVD-0003496

> <SMILES>
NC(Cc1ccc2cc[nH]c2c1)\C=C\S(=O)(=O)Nc1c[nH]cn1

$$$$

  CDD

  0  0  0  0  0  0            999 V2000
M  END
> <Molecule Name>
CVD-0003495

> <SMILES>
CNC(=O)c1ccccc1C(=O)c1ccccc1NC(=O)Nc1cccnc1

$$$$

  CDD

  0  0  0  0  0  0            999 V2000
M  END
> <Molecule Name>
CVD-0003494

> <SMILES>
CCN(CC)c1cc(NC(=O)C=C)c(Nc2nccc(n2)C(N)=O)cc1NCCN(C)C

$$$$

  CDD

  0  0  0  0  0  0            999 V2000
M  END
> <Molecule Name>
CVD-0003493

> <SMILES>
CCCNc1cc(Nc2nccc(n2)C(N)=O)c(NC(=O)C=C)cc1N(CC)CC

$$$$

  CDD

  0  0  0  0  0  0            999 V2000
M  END
> <Molecule Name>
CVD-0003492

> <SMILES>
CN(C)CCNc1cc(Nc2nccc(n2)C(N)=O)c(NC(=O)C=C)cc1N(C)C

$$$$

  CDD

  0  0  0  0  0  0            999 V2000
M  END
> <Molecule Name>
CVD-0003491

> <SMILES>
CCCNc1cc(Nc2nccc(n2)C(N)=O)c(NC(=O)C=C)cc1N(C)C

$$$$

  CDD

  0  0  0  0  0  0            999 V2000
M  END
> <Molecule Name>
CVD-0003490

> <SMILES>
ClCC(=O)N1CCN(Cc2cn(Cc3ccccc3)nn2)CC1

$$$$

  CDD

  0  0  0  0  0  0            999 V2000
M  END
> <Molecule Name>
CVD-0003489

> <SMILES>
ClCC(=O)N1CCCC(C1)n1cc(COCc2ccccc2)nn1

$$$$

  CDD

  0  0  0  0  0  0            999 V2000
M  END
> <Molecule Name>
CVD-0003488

> <SMILES>
ClCC(=O)N1CCCC(C1)n1cc(nn1)-c1ccc(Cl)cc1

$$$$

  CDD

  0  0  0  0  0  0            999 V2000
M  END
> <Molecule Name>
CVD-0003487

> <SMILES>
ClCC(=O)N1CCCC(C1)n1cc(nn1)-c1ccccc1

$$$$

  CDD

  0  0  0  0  0  0            999 V2000
M  END
> <Molecule Name>
CVD-0003486

> <SMILES>
ClCC(=O)N1CCN(CCNC(=O)c2cccnc2)CC1

$$$$

  CDD

  0  0  0  0  0  0            999 V2000
M  END
> <Molecule Name>
CVD-0003485

> <SMILES>
ClCC(=O)N1CCN(CCNC(=O)c2cccc3ccccc23)CC1

$$$$

  CDD

  0  0  0  0  0  0            999 V2000
M  END
> <Molecule Name>
CVD-0003484

> <SMILES>
ClCC(=O)N1CCN(CCNC(=O)c2ccccc2)CC1

$$$$

  CDD

  0  0  0  0  0  0            999 V2000
M  END
> <Molecule Name>
CVD-0003483

> <SMILES>
Cc1cccc(c1)C(N1CCN(CC1)C(=O)CCl)c1ccc(Cl)s1

$$$$

  CDD

  0  0  0  0  0  0            999 V2000
M  END
> <Molecule Name>
CVD-0003482

> <SMILES>
ClCC(=O)N1CCN(CC1)C(c1ccccc1)c1ccccc1

$$$$

  CDD

  0  0  0  0  0  0            999 V2000
M  END
> <Molecule Name>
CVD-0003481

> <SMILES>
O=C(NC1CC1)C1CCCN(c2ccccc2)C(=O)N1c1cccnc1

$$$$

  CDD

  0  0  0  0  0  0            999 V2000
M  END
> <Molecule Name>
CVD-0003480

> <SMILES>
O=C(NC1CC1)C1CCN(C(=O)N1c1cccnc1)c1ccccc1

$$$$

  CDD

  0  0  0  0  0  0            999 V2000
M  END
> <Molecule Name>
CVD-0003479

> <SMILES>
CC(=O)NCCc1ccncc1N(CC(=O)NC1CC1)C(=O)Nc1ccccc1

$$$$

  CDD

  0  0  0  0  0  0            999 V2000
M  END
> <Molecule Name>
CVD-0003478

> <SMILES>
NS(=O)(=O)Cc1cccc(NC(=O)N(CC(=O)NC2CC2)c2cccnc2)c1

$$$$

  CDD

  0  0  0  0  0  0            999 V2000
M  END
> <Molecule Name>
CVD-0003477

> <SMILES>
O=C(CN(C(=O)Nc1ccccc1)c1cccnc1)NC1CC1

$$$$

  CDD

  0  0  0  0  0  0            999 V2000
M  END
> <Molecule Name>
CVD-0003476

> <SMILES>
O=C(CN(C(=O)Nc1ccccc1)c1cccnc1)N1CCN(CC1)S(=O)(=O)c1ccccc1

$$$$

  CDD

  0  0  0  0  0  0            999 V2000
M  END
> <Molecule Name>
CVD-0003475

> <SMILES>
CN(Cc1cc(C)on1)C(=O)N1CCC(CC1)NC(=O)c1ccccc1

$$$$

  CDD

  0  0  0  0  0  0            999 V2000
M  END
> <Molecule Name>
CVD-0003474

> <SMILES>
ClCC(=O)N1CCC(NC(=O)c2ccccc2)C(C1)NCc1ccccc1

$$$$

  CDD

  0  0  0  0  0  0            999 V2000
M  END
> <Molecule Name>
CVD-0003473

> <SMILES>
CN(Cc1cccnc1)C(=O)N1CCN(CC1)S(=O)(=O)c1ccc(C)cc1

$$$$

  CDD

  0  0  0  0  0  0            999 V2000
M  END
> <Molecule Name>
CVD-0003472

> <SMILES>
CN(Cc1cc(C)on1)C(=O)N1CCN(CC1)S(=O)(=O)c1ccc(C)cc1

$$$$

  CDD

  0  0  0  0  0  0            999 V2000
M  END
> <Molecule Name>
CVD-0003471

> <SMILES>
CN(Cc1cc(C)on1)C(=O)NC1CCN(CC1)S(=O)(=O)c1ccc(C)cc1

$$$$

  CDD

  0  0  0  0  0  0            999 V2000
M  END
> <Molecule Name>
CVD-0003470

> <SMILES>
CN1CCN(CCC(=O)Nc2cccnc2CNC(=O)NCC2CC2)CC1

$$$$

  CDD

  0  0  0  0  0  0            999 V2000
M  END
> <Molecule Name>
CVD-0003469

> <SMILES>
CN1CCN(CCC(=O)Nc2cccnc2CNC(=O)NC2CCCC2)CC1

$$$$

  CDD

  0  0  0  0  0  0            999 V2000
M  END
> <Molecule Name>
CVD-0003468

> <SMILES>
CN1CCC(CC1)OCC(=O)Nc1cccnc1CNC(=O)NC1CC1

$$$$

  CDD

  0  0  0  0  0  0            999 V2000
M  END
> <Molecule Name>
CVD-0003467

> <SMILES>
CN1CCN(CCC(=O)Nc2ccncc2CNC(=O)NC2CC2)CC1

$$$$

  CDD

  0  0  0  0  0  0            999 V2000
M  END
> <Molecule Name>
CVD-0003466

> <SMILES>
CN1CCN(CCC(=O)Nc2cccnc2CNC(=O)NC2CC2)CC1

$$$$

  CDD

  0  0  0  0  0  0            999 V2000
M  END
> <Molecule Name>
CVD-0003465

> <SMILES>
CN1CCC(CC1)OCC(=O)Nc1ccncc1CNC(=O)NC1CC1

$$$$

  CDD

  0  0  0  0  0  0            999 V2000
M  END
> <Molecule Name>
CVD-0003464

> <SMILES>
O=C(CCN1CCOCC1)Nc1cccnc1CNC(=O)NC1CC1

$$$$

  CDD

  0  0  0  0  0  0            999 V2000
M  END
> <Molecule Name>
CVD-0003463

> <SMILES>
CC(=O)NCCN1CCC(CNS(C)(=O)=O)(CC(=O)Nc2cnccc2C)CC1

$$$$

  CDD

  0  0  0  0  0  0            999 V2000
M  END
> <Molecule Name>
CVD-0003462

> <SMILES>
C[C@@]1(C[C@@](Cc2c[nH]c3ncccc23)(C[C@@H]1CC(N)=N)C(=O)CCl)c1cc(C#N)c2ccc(cc2c1)S(N)(=O)=O

$$$$

  CDD

  0  0  0  0  0  0            999 V2000
M  END
> <Molecule Name>
CVD-0003461

> <SMILES>
NC(=N)N1C[C@H](N(CCc2c[nH]c3ncccc23)[C@H](C1)c1[nH]c2cc(ccc2c1C#N)S(N)(=O)=O)C(=O)CCl

$$$$

  CDD

  0  0  0  0  0  0            999 V2000
M  END
> <Molecule Name>
CVD-0003460

> <SMILES>
CN(C)c1cnc(F)c(NC(=O)CC2CCCCC2)c1

$$$$

  CDD

  0  0  0  0  0  0            999 V2000
M  END
> <Molecule Name>
CVD-0003459

> <SMILES>
CNc1cnc(F)c(NC(=O)CC2CCCCC2)c1

$$$$

  CDD

  0  0  0  0  0  0            999 V2000
M  END
> <Molecule Name>
CVD-0003458

> <SMILES>
Fc1ncc2nccnc2c1NC(=O)Nc1ccccc1

$$$$

  CDD

  0  0  0  0  0  0            999 V2000
M  END
> <Molecule Name>
CVD-0003457

> <SMILES>
Fc1ncc2nccn2c1NC(=O)Nc1ccccc1

$$$$

  CDD

  0  0  0  0  0  0            999 V2000
M  END
> <Molecule Name>
CVD-0003456

> <SMILES>
Fc1ncn2nccc2c1NC(=O)Nc1ccccc1

$$$$

  CDD

  0  0  0  0  0  0            999 V2000
M  END
> <Molecule Name>
CVD-0003455

> <SMILES>
Fc1ncc2ncccc2c1NC(=O)Nc1ccccc1

$$$$

  CDD

  0  0  0  0  0  0            999 V2000
M  END
> <Molecule Name>
CVD-0003454

> <SMILES>
CN(C)c1cnc(F)c(NC(=O)Nc2ccccc2)c1

$$$$

  CDD

  0  0  0  0  0  0            999 V2000
M  END
> <Molecule Name>
CVD-0003453

> <SMILES>
Fc1ncc2ncncc2c1NC(=O)Nc1ccccc1

$$$$

  CDD

  0  0  0  0  0  0            999 V2000
M  END
> <Molecule Name>
CVD-0003452

> <SMILES>
Nc1cnc(F)c(NC(=O)CC2CCCCC2)c1

$$$$

  CDD

  0  0  0  0  0  0            999 V2000
M  END
> <Molecule Name>
CVD-0003451

> <SMILES>
Fc1ncc2[nH]cnc2c1NC(=O)CC1CCCCC1

$$$$

  CDD

  0  0  0  0  0  0            999 V2000
M  END
> <Molecule Name>
CVD-0003450

> <SMILES>
CNc1cnc(F)c(NC(=O)Nc2ccccc2)c1

$$$$

  CDD

  0  0  0  0  0  0            999 V2000
M  END
> <Molecule Name>
CVD-0003449

> <SMILES>
Fc1ncc2[nH]cnc2c1NC(=O)Nc1ccccc1

$$$$

  CDD

  0  0  0  0  0  0            999 V2000
M  END
> <Molecule Name>
CVD-0003448

> <SMILES>
Fc1ncc2[nH]ncc2c1NC(=O)Nc1ccccc1

$$$$

  CDD

  0  0  0  0  0  0            999 V2000
M  END
> <Molecule Name>
CVD-0003447

> <SMILES>
Fc1ncc2[nH]ccc2c1NC(=O)Nc1ccccc1

$$$$

  CDD

  0  0  0  0  0  0            999 V2000
M  END
> <Molecule Name>
CVD-0003446

> <SMILES>
Fc1ncc2ncncc2c1NC(=O)CC1CCCCC1

$$$$

  CDD

  0  0  0  0  0  0            999 V2000
M  END
> <Molecule Name>
CVD-0003445

> <SMILES>
Fc1ncc2nccnc2c1NC(=O)CC1CCCCC1

$$$$

  CDD

  0  0  0  0  0  0            999 V2000
M  END
> <Molecule Name>
CVD-0003444

> <SMILES>
Fc1ncc2[nH]ncc2c1NC(=O)CC1CCCCC1

$$$$

  CDD

  0  0  0  0  0  0            999 V2000
M  END
> <Molecule Name>
CVD-0003443

> <SMILES>
Fc1ncc2nccn2c1NC(=O)CC1CCCCC1

$$$$

  CDD

  0  0  0  0  0  0            999 V2000
M  END
> <Molecule Name>
CVD-0003442

> <SMILES>
Fc1ncn2nccc2c1NC(=O)CC1CCCCC1

$$$$

  CDD

  0  0  0  0  0  0            999 V2000
M  END
> <Molecule Name>
CVD-0003441

> <SMILES>
Fc1ncc2[nH]ccc2c1NC(=O)CC1CCCCC1

$$$$

  CDD

  0  0  0  0  0  0            999 V2000
M  END
> <Molecule Name>
CVD-0003440

> <SMILES>
Fc1ncc2ncccc2c1NC(=O)CC1CCCCC1

$$$$

  CDD

  0  0  0  0  0  0            999 V2000
M  END
> <Molecule Name>
CVD-0003439

> <SMILES>
Nc1cnc(F)c(NC(=O)Nc2ccccc2)c1

$$$$

  CDD

  0  0  0  0  0  0            999 V2000
M  END
> <Molecule Name>
CVD-0003438

> <SMILES>
Clc1ncc2ncccc2c1NC(=O)Nc1ccccc1

$$$$

  CDD

  0  0  0  0  0  0            999 V2000
M  END
> <Molecule Name>
CVD-0003437

> <SMILES>
Clc1ncc2ncncc2c1NC(=O)Nc1ccccc1

$$$$

  CDD

  0  0  0  0  0  0            999 V2000
M  END
> <Molecule Name>
CVD-0003436

> <SMILES>
CN(C)c1cnc(Cl)c(NC(=O)Nc2ccccc2)c1

$$$$

  CDD

  0  0  0  0  0  0            999 V2000
M  END
> <Molecule Name>
CVD-0003435

> <SMILES>
CNc1cnc(Cl)c(NC(=O)Nc2ccccc2)c1

$$$$

  CDD

  0  0  0  0  0  0            999 V2000
M  END
> <Molecule Name>
CVD-0003434

> <SMILES>
Nc1cnc(Cl)c(NC(=O)Nc2ccccc2)c1

$$$$

  CDD

  0  0  0  0  0  0            999 V2000
M  END
> <Molecule Name>
CVD-0003433

> <SMILES>
Clc1ncccc1NC(=O)CC1CCCCC1

$$$$

  CDD

  0  0  0  0  0  0            999 V2000
M  END
> <Molecule Name>
CVD-0003432

> <SMILES>
Clc1ncccc1NC(=O)Nc1ccccc1

$$$$

  CDD

  0  0  0  0  0  0            999 V2000
M  END
> <Molecule Name>
CVD-0003431

> <SMILES>
Clc1ncc2nccnc2c1NC(=O)CC1CCCCC1

$$$$

  CDD

  0  0  0  0  0  0            999 V2000
M  END
> <Molecule Name>
CVD-0003430

> <SMILES>
Clc1ncc2[nH]ncc2c1NC(=O)CC1CCCCC1

$$$$

  CDD

  0  0  0  0  0  0            999 V2000
M  END
> <Molecule Name>
CVD-0003429

> <SMILES>
Clc1ncc2[nH]cnc2c1NC(=O)CC1CCCCC1

$$$$

  CDD

  0  0  0  0  0  0            999 V2000
M  END
> <Molecule Name>
CVD-0003428

> <SMILES>
Clc1ncc2nccn2c1NC(=O)CC1CCCCC1

$$$$

  CDD

  0  0  0  0  0  0            999 V2000
M  END
> <Molecule Name>
CVD-0003427

> <SMILES>
Clc1ncn2nccc2c1NC(=O)CC1CCCCC1

$$$$

  CDD

  0  0  0  0  0  0            999 V2000
M  END
> <Molecule Name>
CVD-0003426

> <SMILES>
Clc1ncc2[nH]ccc2c1NC(=O)CC1CCCCC1

$$$$

  CDD

  0  0  0  0  0  0            999 V2000
M  END
> <Molecule Name>
CVD-0003425

> <SMILES>
Clc1ncc2ncccc2c1NC(=O)CC1CCCCC1

$$$$

  CDD

  0  0  0  0  0  0            999 V2000
M  END
> <Molecule Name>
CVD-0003424

> <SMILES>
Fc1ncccc1NC(=O)CC1CCCCC1

$$$$

  CDD

  0  0  0  0  0  0            999 V2000
M  END
> <Molecule Name>
CVD-0003423

> <SMILES>
Clc1ncc2ncncc2c1NC(=O)CC1CCCCC1

$$$$

  CDD

  0  0  0  0  0  0            999 V2000
M  END
> <Molecule Name>
CVD-0003422

> <SMILES>
CN(C)c1cnc(Cl)c(NC(=O)CC2CCCCC2)c1

$$$$

  CDD

  0  0  0  0  0  0            999 V2000
M  END
> <Molecule Name>
CVD-0003421

> <SMILES>
CNc1cnc(Cl)c(NC(=O)CC2CCCCC2)c1

$$$$

  CDD

  0  0  0  0  0  0            999 V2000
M  END
> <Molecule Name>
CVD-0003420

> <SMILES>
Nc1cnc(Cl)c(NC(=O)CC2CCCCC2)c1

$$$$

  CDD

  0  0  0  0  0  0            999 V2000
M  END
> <Molecule Name>
CVD-0003419

> <SMILES>
Clc1ncc2nccnc2c1NC(=O)Nc1ccccc1

$$$$

  CDD

  0  0  0  0  0  0            999 V2000
M  END
> <Molecule Name>
CVD-0003418

> <SMILES>
Clc1ncc2[nH]ncc2c1NC(=O)Nc1ccccc1

$$$$

  CDD

  0  0  0  0  0  0            999 V2000
M  END
> <Molecule Name>
CVD-0003417

> <SMILES>
Clc1ncc2[nH]cnc2c1NC(=O)Nc1ccccc1

$$$$

  CDD

  0  0  0  0  0  0            999 V2000
M  END
> <Molecule Name>
CVD-0003416

> <SMILES>
Clc1ncc2nccn2c1NC(=O)Nc1ccccc1

$$$$

  CDD

  0  0  0  0  0  0            999 V2000
M  END
> <Molecule Name>
CVD-0003415

> <SMILES>
Clc1ncn2nccc2c1NC(=O)Nc1ccccc1

$$$$

  CDD

  0  0  0  0  0  0            999 V2000
M  END
> <Molecule Name>
CVD-0003414

> <SMILES>
Clc1ncc2[nH]ccc2c1NC(=O)Nc1ccccc1

$$$$

  CDD

  0  0  0  0  0  0            999 V2000
M  END
> <Molecule Name>
CVD-0003413

> <SMILES>
Fc1ncccc1NC(=O)Nc1ccccc1

$$$$

  CDD

  0  0  0  0  0  0            999 V2000
M  END
> <Molecule Name>
CVD-0003412

> <SMILES>
CCNc1ncc(cc1NC(=O)[C@H](NC(=O)C=C)c1c(F)[nH]c2ncccc12)C#N

$$$$

  CDD

  0  0  0  0  0  0            999 V2000
M  END
> <Molecule Name>
CVD-0003411

> <SMILES>
CCNc1ncc(cc1NC(=O)[C@H](NC(=O)C=C)c1c[nH]c2ncccc12)C#N

$$$$

  CDD

  0  0  0  0  0  0            999 V2000
M  END
> <Molecule Name>
CVD-0003410

> <SMILES>
CCNc1ncc(cc1NC(=O)[C@H](NC(=O)C=C)c1cc(N)cnc1F)C#N

$$$$

  CDD

  0  0  0  0  0  0            999 V2000
M  END
> <Molecule Name>
CVD-0003409

> <SMILES>
CCNc1ncc(cc1NC(=O)[C@H](NC(=O)C=C)c1cncc(N)c1)C#N

$$$$

  CDD

  0  0  0  0  0  0            999 V2000
M  END
> <Molecule Name>
CVD-0003408

> <SMILES>
O=C(Nc1ccccc1)Nc1cncc2[nH]cnc12

$$$$

  CDD

  0  0  0  0  0  0            999 V2000
M  END
> <Molecule Name>
CVD-0003407

> <SMILES>
O=C(Nc1ccccc1)Nc1cncc2[nH]ccc12

$$$$

  CDD

  0  0  0  0  0  0            999 V2000
M  END
> <Molecule Name>
CVD-0003406

> <SMILES>
CN(C)c1cncc(NC(=O)Nc2ccccc2)c1

$$$$

  CDD

  0  0  0  0  0  0            999 V2000
M  END
> <Molecule Name>
CVD-0003405

> <SMILES>
CNc1cncc(NC(=O)Nc2ccccc2)c1

$$$$

  CDD

  0  0  0  0  0  0            999 V2000
M  END
> <Molecule Name>
CVD-0003404

> <SMILES>
Nc1cncc(NC(=O)Nc2ccccc2)c1

$$$$

  CDD

  0  0  0  0  0  0            999 V2000
M  END
> <Molecule Name>
CVD-0003403

> <SMILES>
O=C(CC1CCCCC1)Nc1cncn2nccc12

$$$$

  CDD

  0  0  0  0  0  0            999 V2000
M  END
> <Molecule Name>
CVD-0003402

> <SMILES>
O=C(CC1CCCCC1)Nc1cncc2nccnc12

$$$$

  CDD

  0  0  0  0  0  0            999 V2000
M  END
> <Molecule Name>
CVD-0003401

> <SMILES>
O=C(Nc1ccccc1)Nc1cncn2nccc12

$$$$

  CDD

  0  0  0  0  0  0            999 V2000
M  END
> <Molecule Name>
CVD-0003400

> <SMILES>
O=C(CC1CCCCC1)Nc1cncc2ncccc12

$$$$

  CDD

  0  0  0  0  0  0            999 V2000
M  END
> <Molecule Name>
CVD-0003399

> <SMILES>
O=C(Nc1ccccc1)Nc1cncc2ncccc12

$$$$

  CDD

  0  0  0  0  0  0            999 V2000
M  END
> <Molecule Name>
CVD-0003398

> <SMILES>
O=C(CC1CCCCC1)Nc1cncc2nccn12

$$$$

  CDD

  0  0  0  0  0  0            999 V2000
M  END
> <Molecule Name>
CVD-0003397

> <SMILES>
CNc1cncc(NC(=O)CC2CCCCC2)c1

$$$$

  CDD

  0  0  0  0  0  0            999 V2000
M  END
> <Molecule Name>
CVD-0003396

> <SMILES>
O=C(CC1CCCCC1)Nc1cncc2[nH]cnc12

$$$$

  CDD

  0  0  0  0  0  0            999 V2000
M  END
> <Molecule Name>
CVD-0003395

> <SMILES>
O=C(Nc1ccccc1)Nc1cncc2ncncc12

$$$$

  CDD

  0  0  0  0  0  0            999 V2000
M  END
> <Molecule Name>
CVD-0003394

> <SMILES>
Nc1cncc(NC(=O)CC2CCCCC2)c1

$$$$

  CDD

  0  0  0  0  0  0            999 V2000
M  END
> <Molecule Name>
CVD-0003393

> <SMILES>
CN(C)c1cncc(NC(=O)CC2CCCCC2)c1

$$$$

  CDD

  0  0  0  0  0  0            999 V2000
M  END
> <Molecule Name>
CVD-0003392

> <SMILES>
O=C(Nc1ccccc1)Nc1cncc2nccn12

$$$$

  CDD

  0  0  0  0  0  0            999 V2000
M  END
> <Molecule Name>
CVD-0003391

> <SMILES>
O=C(CC1CCCCC1)Nc1cncc2ncncc12

$$$$

  CDD

  0  0  0  0  0  0            999 V2000
M  END
> <Molecule Name>
CVD-0003390

> <SMILES>
O=C(CC1CCCCC1)Nc1cncc2[nH]ncc12

$$$$

  CDD

  0  0  0  0  0  0            999 V2000
M  END
> <Molecule Name>
CVD-0003389

> <SMILES>
O=C(Nc1ccccc1)Nc1cncc2nccnc12

$$$$

  CDD

  0  0  0  0  0  0            999 V2000
M  END
> <Molecule Name>
CVD-0003388

> <SMILES>
O=C(Nc1ccccc1)Nc1cncc2[nH]ncc12

$$$$

  CDD

  0  0  0  0  0  0            999 V2000
M  END
> <Molecule Name>
CVD-0003387

> <SMILES>
O=C(CC1CCCCC1)Nc1cncc2[nH]ccc12

$$$$

  CDD

  0  0  0  0  0  0            999 V2000
M  END
> <Molecule Name>
CVD-0003386

> <SMILES>
CN1CCN(CC1)C(=O)Nc1c[nH]c2ncccc12

$$$$

  CDD

  0  0  0  0  0  0            999 V2000
M  END
> <Molecule Name>
CVD-0003385

> <SMILES>
CN1CCN(CC1)C(=O)Cc1c(Cl)[nH]c2nccnc12

$$$$

  CDD

  0  0  0  0  0  0            999 V2000
M  END
> <Molecule Name>
CVD-0003384

> <SMILES>
CN1CCN(CC1)C(=O)Cc1c(Cl)[nH]c2ncncc12

$$$$

  CDD

  0  0  0  0  0  0            999 V2000
M  END
> <Molecule Name>
CVD-0003383

> <SMILES>
CN1CCN(CC1)C(=O)Cc1c(Cl)[nH]c2ncccc12

$$$$

  CDD

  0  0  0  0  0  0            999 V2000
M  END
> <Molecule Name>
CVD-0003382

> <SMILES>
CN1CCN(CC1)C(=O)Cc1c(F)[nH]c2nccnc12

$$$$

  CDD

  0  0  0  0  0  0            999 V2000
M  END
> <Molecule Name>
CVD-0003381

> <SMILES>
CN1CCN(CC1)C(=O)Cc1c(F)[nH]c2ncncc12

$$$$

  CDD

  0  0  0  0  0  0            999 V2000
M  END
> <Molecule Name>
CVD-0003380

> <SMILES>
CN1CCN(CC1)C(=O)Cc1c(F)[nH]c2ncccc12

$$$$

  CDD

  0  0  0  0  0  0            999 V2000
M  END
> <Molecule Name>
CVD-0003379

> <SMILES>
CN1CCN(CC1)C(=O)Cc1c[nH]c2nccnc12

$$$$

  CDD

  0  0  0  0  0  0            999 V2000
M  END
> <Molecule Name>
CVD-0003378

> <SMILES>
CN1CCN(CC1)C(=O)Nc1c(Cl)[nH]c2ncccc12

$$$$

  CDD

  0  0  0  0  0  0            999 V2000
M  END
> <Molecule Name>
CVD-0003377

> <SMILES>
CN1CCN(CC1)C(=O)Nc1c(Cl)[nH]c2nccnc12

$$$$

  CDD

  0  0  0  0  0  0            999 V2000
M  END
> <Molecule Name>
CVD-0003376

> <SMILES>
CN1CCN(CC1)C(=O)Nc1c(Cl)[nH]c2ncncc12

$$$$

  CDD

  0  0  0  0  0  0            999 V2000
M  END
> <Molecule Name>
CVD-0003375

> <SMILES>
CN1CCN(CC1)C(=O)Nc1c(F)[nH]c2nccnc12

$$$$

  CDD

  0  0  0  0  0  0            999 V2000
M  END
> <Molecule Name>
CVD-0003374

> <SMILES>
CN1CCN(CC1)C(=O)Nc1c(F)[nH]c2ncncc12

$$$$

  CDD

  0  0  0  0  0  0            999 V2000
M  END
> <Molecule Name>
CVD-0003373

> <SMILES>
CN1CCN(CC1)C(=O)Nc1c(F)[nH]c2ncccc12

$$$$

  CDD

  0  0  0  0  0  0            999 V2000
M  END
> <Molecule Name>
CVD-0003372

> <SMILES>
CN1CCN(CC1)C(=O)Nc1c[nH]c2nccnc12

$$$$

  CDD

  0  0  0  0  0  0            999 V2000
M  END
> <Molecule Name>
CVD-0003371

> <SMILES>
CN1CCN(CC1)C(=O)Nc1c[nH]c2ncncc12

$$$$

  CDD

  0  0  0  0  0  0            999 V2000
M  END
> <Molecule Name>
CVD-0003370

> <SMILES>
CN1CCN(CC1)C(=O)Cc1c[nH]c2ncncc12

$$$$

  CDD

  0  0  0  0  0  0            999 V2000
M  END
> <Molecule Name>
CVD-0003369

> <SMILES>
CCc1ccccc1Nc1nc(N)nc(CSc2nnc3ccccn23)n1

$$$$

  CDD

  0  0  0  0  0  0            999 V2000
M  END
> <Molecule Name>
CVD-0003368

> <SMILES>
Cc1ccc(cc1NC(=O)CCn1c2ccccc2n(C)c1=O)S(=O)(=O)Nc1cccc(Cl)c1

$$$$

  CDD

  0  0  0  0  0  0            999 V2000
M  END
> <Molecule Name>
CVD-0003367

> <SMILES>
Clc1ccc(NCC(=O)NCc2cccnc2)cc1Br

$$$$

  CDD

  0  0  0  0  0  0            999 V2000
M  END
> <Molecule Name>
CVD-0003366

> <SMILES>
CS(=O)(=O)NCCc1cc(NCC(=O)Nc2cccnc2)c2ccncc2c1Cl

$$$$

  CDD

  0  0  0  0  0  0            999 V2000
M  END
> <Molecule Name>
CVD-0003365

> <SMILES>
OB(O)c1cc(OCc2ccccc2)ccc1F

$$$$

  CDD

  0  0  0  0  0  0            999 V2000
M  END
> <Molecule Name>
CVD-0003364

> <SMILES>
CC(=O)N[C@H](Cc1ccccc1)C(=O)N1CCC[C@H]1C(=O)N[C@@H](CCCN)B(O)O

$$$$

  CDD

  0  0  0  0  0  0            999 V2000
M  END
> <Molecule Name>
CVD-0003363

> <SMILES>
Clc1ccc(COC(Cn2ccnc2)c2ccc(Cl)cc2Cl)cc1

$$$$

  CDD

  0  0  0  0  0  0            999 V2000
M  END
> <Molecule Name>
CVD-0003362

> <SMILES>
CN1CCN(Cc2ccc(cc2)C(=O)Nc2ccc(C)c(Nc3nccc(n3)-c3cccnc3)c2)CC1

$$$$

  CDD

  0  0  0  0  0  0            999 V2000
M  END
> <Molecule Name>
CVD-0003361

> <SMILES>
CCCSc1nc(N[C@@H]2C[C@H]2c2ccc(F)c(F)c2)c2nnn([C@@H]3C[C@H](OCCO)[C@@H](O)[C@H]3O)c2n1

$$$$

  CDD

  0  0  0  0  0  0            999 V2000
M  END
> <Molecule Name>
CVD-0003360

> <SMILES>
Cc1cccc(c1)C(CNS(C)(=O)=O)N1CCN(CC1)C(=O)CCl

$$$$

  CDD

  0  0  0  0  0  0            999 V2000
M  END
> <Molecule Name>
CVD-0003359

> <SMILES>
CC(=O)NCCC1=CNc2cc(CN3CCN(CC3)C(=O)CCl)ccc2C1

$$$$

  CDD

  0  0  0  0  0  0            999 V2000
M  END
> <Molecule Name>
CVD-0003358

> <SMILES>
NS(=O)(=O)c1ccc2cc(CN3CCN(CC3)C(=O)CCl)ccc2c1

$$$$

  CDD

  0  0  0  0  0  0            999 V2000
M  END
> <Molecule Name>
CVD-0003357

> <SMILES>
CCNc1ccccc1CN1CCN(CC1)C(=O)CCl

$$$$

  CDD

  0  0  0  0  0  0            999 V2000
M  END
> <Molecule Name>
CVD-0003356

> <SMILES>
OC1CCN(CC1)C(N1CCN(CC1)C(=O)CCl)c1ccccc1

$$$$

  CDD

  0  0  0  0  0  0            999 V2000
M  END
> <Molecule Name>
CVD-0003355

> <SMILES>
CCNc1ncc(C)cc1C1CC(=O)N(C2C1OC(CN2C(=O)CCl)N[S](=O)=O)c1cnccc1C

$$$$

  CDD

  0  0  0  0  0  0            999 V2000
M  END
> <Molecule Name>
CVD-0003354

> <SMILES>
NS(=O)(=O)C1CCC2CCc3cc(sc3C2C1)C(=O)NNC(=O)CCl

$$$$

  CDD

  0  0  0  0  0  0            999 V2000
M  END
> <Molecule Name>
CVD-0003353

> <SMILES>
CS(=O)(=O)NCC(N1CCN(CC1)C(=O)CCl)c1ccccc1

$$$$

  CDD

  0  0  0  0  0  0            999 V2000
M  END
> <Molecule Name>
CVD-0003352

> <SMILES>
Cc1ccc(cc1)C(=O)N1CCN(C(CC(N)=N)C1)C(=O)CCl

$$$$

  CDD

  0  0  0  0  0  0            999 V2000
M  END
> <Molecule Name>
CVD-0003351

> <SMILES>
CC(=O)N(C(=O)N1CCN(CC1)S(=O)(=O)c1ccc(Cl)c(C)c1)C1=CNCC=C1C

$$$$

  CDD

  0  0  0  0  0  0            999 V2000
M  END
> <Molecule Name>
CVD-0003350

> <SMILES>
CC(=O)N(C(=O)N1CCN(CC1)S(=O)(=O)c1cc(ccc1C)C(C)=O)C1=CNCC=C1C

$$$$

  CDD

  0  0  0  0  0  0            999 V2000
M  END
> <Molecule Name>
CVD-0003349

> <SMILES>
CC(=O)N(C(=O)N1CCN(CC1)c1ccccc1)c1cnccc1C

$$$$

  CDD

  0  0  0  0  0  0            999 V2000
M  END
> <Molecule Name>
CVD-0003348

> <SMILES>
CC(=O)N(C(=O)NC1CC1)C1=CNCC=C1C

$$$$

  CDD

  0  0  0  0  0  0            999 V2000
M  END
> <Molecule Name>
CVD-0003347

> <SMILES>
CC(=O)N(C(=O)c1cccnc1Cl)C1=CNCC=C1C

$$$$

  CDD

  0  0  0  0  0  0            999 V2000
M  END
> <Molecule Name>
CVD-0003346

> <SMILES>
CC(=O)N(C(=O)N(C1CS(=O)(=O)C=C1)c1ccc(C)cc1)C1=CNCC=C1C

$$$$

  CDD

  0  0  0  0  0  0            999 V2000
M  END
> <Molecule Name>
CVD-0003345

> <SMILES>
NC1=CN(CC(=O)Cn2c(nc3c(ncnc23)C#C)C2CCCN(C2)C(=O)CCl)CN=C1

$$$$

  CDD

  0  0  0  0  0  0            999 V2000
M  END
> <Molecule Name>
CVD-0003344

> <SMILES>
CC(=O)NC(Cc1ccc(O)cc1)C(=O)Cn1c(nc2c(ncnc12)C#C)C1CCCN(C1)C(=O)CCl

$$$$

  CDD

  0  0  0  0  0  0            999 V2000
M  END
> <Molecule Name>
CVD-0003343

> <SMILES>
ClCC(=O)N1CCN(C(C1)C1=Nc2c([N]1)ncnc2C#C)[S](=O)=O

$$$$

  CDD

  0  0  0  0  0  0            999 V2000
M  END
> <Molecule Name>
CVD-0003342

> <SMILES>
ClCC(=O)N1CCCC(C1)c1nc2c(ncnc2[nH]1)C#C

$$$$

  CDD

  0  0  0  0  0  0            999 V2000
M  END
> <Molecule Name>
CVD-0003341

> <SMILES>
Cc1c(N)cncc1NC(=O)CC(C1C=C(C=CN1C(=O)CCl)N(C1CS(=O)(=O)C=C1)C(=O)CCl)c1ccsc1

$$$$

  CDD

  0  0  0  0  0  0            999 V2000
M  END
> <Molecule Name>
CVD-0003340

> <SMILES>
ClCC(=O)N(C1CS(=O)(=O)C=C1)C1=CCN(C=C1)C(=O)CCl

$$$$

  CDD

  0  0  0  0  0  0            999 V2000
M  END
> <Molecule Name>
CVD-0003339

> <SMILES>
Nc1cncc(NC(=O)c2ccc(cn2)N2CCC(CN(C3CS(=O)(=O)C=C3)C(=O)CCl)OCN2C(=O)CCl)c1

$$$$

  CDD

  0  0  0  0  0  0            999 V2000
M  END
> <Molecule Name>
CVD-0003338

> <SMILES>
Cn1c(nc2ccccc12)-c1cn(C(=O)CCl)c2cc(O)ccc12

$$$$

  CDD

  0  0  0  0  0  0            999 V2000
M  END
> <Molecule Name>
CVD-0003337

> <SMILES>
Oc1ccc2c(cn(C(=O)CCl)c2c1)-c1nc2ccccc2[nH]1

$$$$

  CDD

  0  0  0  0  0  0            999 V2000
M  END
> <Molecule Name>
CVD-0003336

> <SMILES>
ClCC(=O)N1C[C@@H](c2cccc(Cl)c2)c2cccc(OCCN3CCOCC3)c2C1

$$$$

  CDD

  0  0  0  0  0  0            999 V2000
M  END
> <Molecule Name>
CVD-0003335

> <SMILES>
C=C(Cc1ccno1)C(=O)N1CCN(Cc2cccc(c2)C#N)CC1

$$$$

  CDD

  0  0  0  0  0  0            999 V2000
M  END
> <Molecule Name>
CVD-0003334

> <SMILES>
NS(=O)(=O)CCc1cccc2sc(nc12)C1CCCN(C1)C(=O)CCl

$$$$

  CDD

  0  0  0  0  0  0            999 V2000
M  END
> <Molecule Name>
CVD-0003333

> <SMILES>
Cc1nnc(s1)N(C(=O)Nc1cncnc1)c1cccc(Cl)c1

$$$$

  CDD

  0  0  0  0  0  0            999 V2000
M  END
> <Molecule Name>
CVD-0003332

> <SMILES>
O=C1CCN1C\C=C\S(=O)(=O)N1CCN(Cc2cccc(c2)C#N)CC1

$$$$

  CDD

  0  0  0  0  0  0            999 V2000
M  END
> <Molecule Name>
CVD-0003331

> <SMILES>
Clc1cccc(CN2CCN(CC2)C(=O)C(=C)Cc2ccno2)c1

$$$$

  CDD

  0  0  0  0  0  0            999 V2000
M  END
> <Molecule Name>
CVD-0003330

> <SMILES>
CN1CCN(CCOc2cccc3cc(Cl)cc(CN4CCN(CC4)C(=O)C=C)c23)CC1

$$$$

  CDD

  0  0  0  0  0  0            999 V2000
M  END
> <Molecule Name>
CVD-0003329

> <SMILES>
Cc1ccc(s1)N(C(=O)N(CC(=O)CCl)c1cccnc1)c1cccc(Cl)c1

$$$$

  CDD

  0  0  0  0  0  0            999 V2000
M  END
> <Molecule Name>
CVD-0003328

> <SMILES>
Oc1ccc(C[C@H]2CN(Cc3ccc(Cl)s3)CCN2C(=O)CCl)cc1

$$$$

  CDD

  0  0  0  0  0  0            999 V2000
M  END
> <Molecule Name>
CVD-0003327

> <SMILES>
ClCC(=O)N1CCN(CC1)[C@H](c1ccc(Cl)s1)c1cccc(Cl)c1

$$$$

  CDD

  0  0  0  0  0  0            999 V2000
M  END
> <Molecule Name>
CVD-0003326

> <SMILES>
Clc1ccc(s1)[C@@H](C\C=C\C#N)c1cccc(c1)C#N

$$$$

  CDD

  0  0  0  0  0  0            999 V2000
M  END
> <Molecule Name>
CVD-0003325

> <SMILES>
NS(=O)(=O)CCc1cc(Cl)cc(c1)[C@H](N1CCN(CC1)S(=O)(=O)C=C)c1cccs1

$$$$

  CDD

  0  0  0  0  0  0            999 V2000
M  END
> <Molecule Name>
CVD-0003324

> <SMILES>
ClCC(=O)N1CCN(Cc2cc(Cl)cc3cccc(OCCN4CCOCC4)c23)CC1

$$$$

  CDD

  0  0  0  0  0  0            999 V2000
M  END
> <Molecule Name>
CVD-0003323

> <SMILES>
ClCC(=O)CN(C(=O)Nc1cccc(Cl)c1)c1cncnc1

$$$$

  CDD

  0  0  0  0  0  0            999 V2000
M  END
> <Molecule Name>
CVD-0003322

> <SMILES>
Clc1cccc(NC(=O)N(CS(=O)(=O)C=C)c2cncnc2)c1

$$$$

  CDD

  0  0  0  0  0  0            999 V2000
M  END
> <Molecule Name>
CVD-0003321

> <SMILES>
ClCC(=O)N1C[C@@H](c2cocc2Cl)c2cccc(OCCN3CCOCC3)c2C1

$$$$

  CDD

  0  0  0  0  0  0            999 V2000
M  END
> <Molecule Name>
CVD-0003320

> <SMILES>
Clc1cccc(NC(=O)N(CC(=O)C=C)c2cncnc2)c1

$$$$

  CDD

  0  0  0  0  0  0            999 V2000
M  END
> <Molecule Name>
CVD-0003319

> <SMILES>
Cc1ccc(s1)[C@@H](N1CCN(CC1)C(=O)CCl)c1cccc(Cl)c1

$$$$

  CDD

  0  0  0  0  0  0            999 V2000
M  END
> <Molecule Name>
CVD-0003318

> <SMILES>
Clc1cccc(CN2CCN(CC2)C(=O)C(=C)Cc2ccon2)c1

$$$$

  CDD

  0  0  0  0  0  0            999 V2000
M  END
> <Molecule Name>
CVD-0003317

> <SMILES>
Clc1cccc(c1)[C@@H]1CN(Cc2c(OCCN3CCOCC3)cccc12)C(=O)C=C

$$$$

  CDD

  0  0  0  0  0  0            999 V2000
M  END
> <Molecule Name>
CVD-0003316

> <SMILES>
Clc1ccc(s1)N(C(=O)Nc1cncnc1)c1cccc(Cl)c1

$$$$

  CDD

  0  0  0  0  0  0            999 V2000
M  END
> <Molecule Name>
CVD-0003315

> <SMILES>
CC(=O)NCc1c[nH]c2c(Cc3nnc(C)o3)cc(F)cc12

$$$$

  CDD

  0  0  0  0  0  0            999 V2000
M  END
> <Molecule Name>
CVD-0003314

> <SMILES>
CC(=O)NCc1c[nH]c2c(Cc3nnc(C)s3)cc(F)cc12

$$$$

  CDD

  0  0  0  0  0  0            999 V2000
M  END
> <Molecule Name>
CVD-0003313

> <SMILES>
COC1CCN(Cc2cc(F)cc3c(CNC(C)=O)c[nH]c23)CC1

$$$$

  CDD

  0  0  0  0  0  0            999 V2000
M  END
> <Molecule Name>
CVD-0003312

> <SMILES>
CC(=O)NCc1c[nH]c2ccc(cc12)C#N

$$$$

  CDD

  0  0  0  0  0  0            999 V2000
M  END
> <Molecule Name>
CVD-0003311

> <SMILES>
CS(=O)(=O)NCCc1cc(ccc1CNC(=O)N1CCOCC1)C#N

$$$$

  CDD

  0  0  0  0  0  0            999 V2000
M  END
> <Molecule Name>
CVD-0003310

> <SMILES>
NC(=O)C1CCC(C1c1ccsc1)c1nncs1

$$$$

  CDD

  0  0  0  0  0  0            999 V2000
M  END
> <Molecule Name>
CVD-0003309

> <SMILES>
CS(=O)(=O)NCC1CCC(C1c1ccccc1)C(N)=O

$$$$

  CDD

  0  0  0  0  0  0            999 V2000
M  END
> <Molecule Name>
CVD-0003308

> <SMILES>
O=C(CN1CCCC1COCC(=O)C(=O)N1CCN(CC1)S(=O)(=O)c1ccccc1)N1CCOCC1

$$$$

  CDD

  0  0  0  0  0  0            999 V2000
M  END
> <Molecule Name>
CVD-0003307

> <SMILES>
O=C(CN(Cc1cccnc1)C(=O)NC1CCN(CC1)S(=O)(=O)c1ccccc1)N1CCOCC1

$$$$

  CDD

  0  0  0  0  0  0            999 V2000
M  END
> <Molecule Name>
CVD-0003306

> <SMILES>
CC(=O)N1CCCC1COCC(=O)C(=O)N1CCN(CC1)S(=O)(=O)c1ccccc1

$$$$

  CDD

  0  0  0  0  0  0            999 V2000
M  END
> <Molecule Name>
CVD-0003305

> <SMILES>
COC(=O)c1ccc(cc1)C(N)=O

$$$$

  CDD

  0  0  0  0  0  0            999 V2000
M  END
> <Molecule Name>
CVD-0003304

> <SMILES>
O=C(Nc1cccnc1)Oc1ccccc1

$$$$

  CDD

  0  0  0  0  0  0            999 V2000
M  END
> <Molecule Name>
CVD-0003303

> <SMILES>
O=C(Cc1ccccc1)Nc1cccnc1

$$$$

  CDD

  0  0  0  0  0  0            999 V2000
M  END
> <Molecule Name>
CVD-0003302

> <SMILES>
O=C(NCC1CCCCC1)c1cccnc1

$$$$

  CDD

  0  0  0  0  0  0            999 V2000
M  END
> <Molecule Name>
CVD-0003301

> <SMILES>
Cn1c(O)c(NOC(N)=S)c2ccccc12

$$$$

  CDD

  0  0  0  0  0  0            999 V2000
M  END
> <Molecule Name>
CVD-0003300

> <SMILES>
Cn1c(O)c(\N=N\C(N)=O)c2ccccc12

$$$$

  CDD

  0  0  0  0  0  0            999 V2000
M  END
> <Molecule Name>
CVD-0003299

> <SMILES>
Cn1c(O)c(ONC(N)=S)c2ccccc12

$$$$

  CDD

  0  0  0  0  0  0            999 V2000
M  END
> <Molecule Name>
CVD-0003298

> <SMILES>
CC(=O)NCCc1c(O)[nH]c2ccc(F)cc12

$$$$

  CDD

  0  0  0  0  0  0            999 V2000
M  END
> <Molecule Name>
CVD-0003297

> <SMILES>
CC(=O)OCCc1c[nH]c2ccc(F)cc12

$$$$

  CDD

  0  0  0  0  0  0            999 V2000
M  END
> <Molecule Name>
CVD-0003296

> <SMILES>
CC(=O)NCCc1cn(C)c2ccc(F)cc12

$$$$

  CDD

  0  0  0  0  0  0            999 V2000
M  END
> <Molecule Name>
CVD-0003295

> <SMILES>
CC(=O)NCCc1c[nH]c2ccccc12

$$$$

  CDD

  0  0  0  0  0  0            999 V2000
M  END
> <Molecule Name>
CVD-0003294

> <SMILES>
Cn1c(O)c(NCC(N)=O)c2ccccc12

$$$$

  CDD

  0  0  0  0  0  0            999 V2000
M  END
> <Molecule Name>
CVD-0003293

> <SMILES>
Cn1c(O)c(CCC(N)=O)c2ccccc12

$$$$

  CDD

  0  0  0  0  0  0            999 V2000
M  END
> <Molecule Name>
CVD-0003292

> <SMILES>
Cn1c(O)c(\C=C\C(N)=O)c2ccccc12

$$$$

  CDD

  0  0  0  0  0  0            999 V2000
M  END
> <Molecule Name>
CVD-0003291

> <SMILES>
Cn1c(O)c(CNC(N)=O)c2ccccc12

$$$$

  CDD

  0  0  0  0  0  0            999 V2000
M  END
> <Molecule Name>
CVD-0003290

> <SMILES>
CC(=O)NCCc1c[nH]c2ccc(Cl)cc12

$$$$

  CDD

  0  0  0  0  0  0            999 V2000
M  END
> <Molecule Name>
CVD-0003289

> <SMILES>
C1CC2(CCN(C2)c2cccnc2)CO1

$$$$

  CDD

  0  0  0  0  0  0            999 V2000
M  END
> <Molecule Name>
CVD-0003288

> <SMILES>
C1CC2(CCN(C2)c2ccccn2)CO1

$$$$

  CDD

  0  0  0  0  0  0            999 V2000
M  END
> <Molecule Name>
CVD-0003287

> <SMILES>
CC(=O)NCCc1c[nH]c2c(CN3CCC(O)CC3)cc(F)cc12

$$$$

  CDD

  0  0  0  0  0  0            999 V2000
M  END
> <Molecule Name>
CVD-0003286

> <SMILES>
CC(=O)NC=Cc1c[nH]c2c(C=CNS(C)(=O)=O)cc(F)cc12

$$$$

  CDD

  0  0  0  0  0  0            999 V2000
M  END
> <Molecule Name>
CVD-0003285

> <SMILES>
CC(=O)NC=Cc1c[nH]c2c(CCNS(C)(=O)=O)cc(F)cc12

$$$$

  CDD

  0  0  0  0  0  0            999 V2000
M  END
> <Molecule Name>
CVD-0003284

> <SMILES>
CC(=O)NC=Cc1c[nH]c2c(CN3CCC(O)CC3)cc(F)cc12

$$$$

  CDD

  0  0  0  0  0  0            999 V2000
M  END
> <Molecule Name>
CVD-0003283

> <SMILES>
CC(=O)NCCc1c[nH]c2[C@@H](CCNS(C)(=O)=O)CC(F)Cc12

$$$$

  CDD

  0  0  0  0  0  0            999 V2000
M  END
> <Molecule Name>
CVD-0003282

> <SMILES>
OC1CCC(Cc2c(CC(=O)Nc3c[nH]cn3)sc3cc[nH]c23)CC1

$$$$

  CDD

  0  0  0  0  0  0            999 V2000
M  END
> <Molecule Name>
CVD-0003281

> <SMILES>
OC1CCC(Cc2c(NC(=O)Cc3c[nH]cn3)sc3cc[nH]c23)CC1

$$$$

  CDD

  0  0  0  0  0  0            999 V2000
M  END
> <Molecule Name>
CVD-0003280

> <SMILES>
O=C(Cc1c[nH]cn1)Nc1cc2[nH]cc(CCc3ncc[nH]3)c2s1

$$$$

  CDD

  0  0  0  0  0  0            999 V2000
M  END
> <Molecule Name>
CVD-0003279

> <SMILES>
O=C(Cc1cc2[nH]cc(CCc3ncc[nH]3)c2s1)Nc1c[nH]cn1

$$$$

  CDD

  0  0  0  0  0  0            999 V2000
M  END
> <Molecule Name>
CVD-0003278

> <SMILES>
OC1CCC(Cc2c(CC(=O)Nc3cnc[nH]3)sc3cc(CCc4ncc[nH]4)[nH]c23)CC1

$$$$

  CDD

  0  0  0  0  0  0            999 V2000
M  END
> <Molecule Name>
CVD-0003277

> <SMILES>
OC1CCC(Cc2c(NC(=O)Cc3cnc[nH]3)sc3cc(CCc4ncc[nH]4)[nH]c23)CC1

$$$$

  CDD

  0  0  0  0  0  0            999 V2000
M  END
> <Molecule Name>
CVD-0003276

> <SMILES>
OC1CCC(Cc2c(NC(=O)Nc3c[nH]cn3)sc3cc[nH]c23)CC1

$$$$

  CDD

  0  0  0  0  0  0            999 V2000
M  END
> <Molecule Name>
CVD-0003275

> <SMILES>
O=C(Nc1c[nH]cn1)Nc1cc2[nH]cc(CCc3ncc[nH]3)c2s1

$$$$

  CDD

  0  0  0  0  0  0            999 V2000
M  END
> <Molecule Name>
CVD-0003274

> <SMILES>
OC1CCC(Cc2c(NC(=O)Nc3cnc[nH]3)sc3cc(CCc4ncc[nH]4)[nH]c23)CC1

$$$$

  CDD

  0  0  0  0  0  0            999 V2000
M  END
> <Molecule Name>
CVD-0003273

> <SMILES>
CC(=O)N[C@@H](CO)C(=O)NCC(=O)N[C@@H](Cc1ccccc1)C(=O)N[C@@H](CCCNC(N)=O)C(N)=O

$$$$

  CDD

  0  0  0  0  0  0            999 V2000
M  END
> <Molecule Name>
CVD-0003272

> <SMILES>
N[C@@H](CO)C(=O)NCC(=O)N[C@@H](Cc1ccccc1)C(=O)N[C@@H](CCCNC(N)=N)C(O)=O

$$$$

  CDD

  0  0  0  0  0  0            999 V2000
M  END
> <Molecule Name>
CVD-0003271

> <SMILES>
N[C@@H](CO)C(=O)N[C@@H](Cc1c[nH]c2ccccc12)C(=O)N[C@H](CO)C(=O)N[C@@H](CCCNC(N)=N)C(O)=O

$$$$

  CDD

  0  0  0  0  0  0            999 V2000
M  END
> <Molecule Name>
CVD-0003270

> <SMILES>
CC(=O)N[C@@H](CO)C(=O)N[C@@H](Cc1c[nH]c2ccccc12)C(=O)NCC(=O)N[C@@H](CCCNC(N)=O)C(N)=O

$$$$

  CDD

  0  0  0  0  0  0            999 V2000
M  END
> <Molecule Name>
CVD-0003269

> <SMILES>
N[C@@H](CO)C(=O)N[C@@H](Cc1c[nH]c2ccccc12)C(=O)NCC(=O)N[C@@H](CCCNC(N)=N)C(O)=O

$$$$

  CDD

  0  0  0  0  0  0            999 V2000
M  END
> <Molecule Name>
CVD-0003268

> <SMILES>
CC(=O)N[C@@H](CO)C(=O)N[C@@H](Cc1c[nH]c2ccccc12)C(=O)N[C@@H](Cc1ccccc1)C(=O)N[C@@H](CCCNC(N)=O)C(N)=O

$$$$

  CDD

  0  0  0  0  0  0            999 V2000
M  END
> <Molecule Name>
CVD-0003267

> <SMILES>
N[C@@H](CO)C(=O)N[C@@H](Cc1c[nH]c2ccccc12)C(=O)N[C@@H](Cc1ccccc1)C(=O)N[C@@H](CCCNC(N)=N)C(O)=O

$$$$

  CDD

  0  0  0  0  0  0            999 V2000
M  END
> <Molecule Name>
CVD-0003266

> <SMILES>
CC(=O)N[C@@H](CO)C(=O)N[C@@H](Cc1ccccc1)C(=O)N[C@@H](Cc1ccccc1)C(=O)N[C@@H](CCCNC(N)=O)C(N)=O

$$$$

  CDD

  0  0  0  0  0  0            999 V2000
M  END
> <Molecule Name>
CVD-0003265

> <SMILES>
N[C@@H](CO)C(=O)N[C@@H](Cc1ccccc1)C(=O)N[C@@H](Cc1ccccc1)C(=O)N[C@@H](CCCNC(N)=N)C(O)=O

$$$$

  CDD

  0  0  0  0  0  0            999 V2000
M  END
> <Molecule Name>
CVD-0003264

> <SMILES>
CC(=O)N[C@@H](CO)C(=O)N[C@@H](Cc1ccccc1)C(=O)NCC(=O)N[C@@H](CCCNC(N)=O)C(N)=O

$$$$

  CDD

  0  0  0  0  0  0            999 V2000
M  END
> <Molecule Name>
CVD-0003263

> <SMILES>
CC(=O)N[C@@H](CO)C(=O)N[C@@H](Cc1ccccc1)C(=O)N[C@H](CO)C(=O)N[C@@H](CCCNC(N)=O)C(N)=O

$$$$

  CDD

  0  0  0  0  0  0            999 V2000
M  END
> <Molecule Name>
CVD-0003262

> <SMILES>
N[C@@H](CO)C(=O)N[C@@H](Cc1ccccc1)C(=O)N[C@H](CO)C(=O)N[C@@H](CCCNC(N)=N)C(O)=O

$$$$

  CDD

  0  0  0  0  0  0            999 V2000
M  END
> <Molecule Name>
CVD-0003261

> <SMILES>
CC(=O)N[C@@H](CO)C(=O)N[C@@H](Cc1c[nH]c2ccccc12)C(=O)N[C@H](CO)C(=O)N[C@@H](CCCNC(N)=O)C(N)=O

$$$$

  CDD

  0  0  0  0  0  0            999 V2000
M  END
> <Molecule Name>
CVD-0003260

> <SMILES>
N[C@@H](CO)C(=O)N[C@@H](Cc1ccccc1)C(=O)NCC(=O)N[C@@H](CCCNC(N)=N)C(O)=O

$$$$

  CDD

  0  0  0  0  0  0            999 V2000
M  END
> <Molecule Name>
CVD-0003259

> <SMILES>
OC1CCC(Cc2csc3c(CCc4ncc[nH]4)c[nH]c23)CC1

$$$$

  CDD

  0  0  0  0  0  0            999 V2000
M  END
> <Molecule Name>
CVD-0003258

> <SMILES>
OC1CCC(Cc2c(NC(=O)Nc3ccncn3)sc3cc[nH]c23)CC1

$$$$

  CDD

  0  0  0  0  0  0            999 V2000
M  END
> <Molecule Name>
CVD-0003257

> <SMILES>
O=C(Nc1cc2[nH]cc(CCc3ncc[nH]3)c2s1)Nc1ccncn1

$$$$

  CDD

  0  0  0  0  0  0            999 V2000
M  END
> <Molecule Name>
CVD-0003256

> <SMILES>
OC1CCC(Cc2c(NC(=O)Nc3ccncn3)sc3cc(CCc4ncc[nH]4)[nH]c23)CC1

$$$$

  CDD

  0  0  0  0  0  0            999 V2000
M  END
> <Molecule Name>
CVD-0003255

> <SMILES>
Oc1ccccc1CC[C@H]1CN(CCN1S(=O)(=O)c1ccc(Cl)cc1)C(=O)CCl

$$$$

  CDD

  0  0  0  0  0  0            999 V2000
M  END
> <Molecule Name>
CVD-0003254

> <SMILES>
Oc1ccccc1CC[C@H]1CN(CCN1S(=O)(=O)c1ccc(Cl)s1)C(=O)CCl

$$$$

  CDD

  0  0  0  0  0  0            999 V2000
M  END
> <Molecule Name>
CVD-0003253

> <SMILES>
Fc1ccc(O[C@H]2CN(CCN2C(=O)CCl)S(=O)(=O)c2ccc(Cl)s2)cc1

$$$$

  CDD

  0  0  0  0  0  0            999 V2000
M  END
> <Molecule Name>
CVD-0003252

> <SMILES>
Fc1ccc(O[C@H]2CN(CCN2C(=O)CCl)S(=O)(=O)c2ccc(Cl)cc2)cc1

$$$$

  CDD

  0  0  0  0  0  0            999 V2000
M  END
> <Molecule Name>
CVD-0003251

> <SMILES>
Cc1ccc(N(C2CS(=O)(=O)C=C2)C(=O)CCl)c(Cc2c[nH]cn2)c1

$$$$

  CDD

  0  0  0  0  0  0            999 V2000
M  END
> <Molecule Name>
CVD-0003250

> <SMILES>
Fc1ccc(N(C2CS(=O)(=O)C=C2)C(=O)CCl)c(Cc2ccccc2)c1

$$$$

  CDD

  0  0  0  0  0  0            999 V2000
M  END
> <Molecule Name>
CVD-0003249

> <SMILES>
Cc1ccc(N(C2CS(=O)(=O)C=C2)C(=O)CCl)c(Cc2ccccc2)c1

$$$$

  CDD

  0  0  0  0  0  0            999 V2000
M  END
> <Molecule Name>
CVD-0003248

> <SMILES>
[O-][N+](=O)c1cccc2cc3C(CN(Cc3cc12)C(=O)CCl)c1c[nH]cn1

$$$$

  CDD

  0  0  0  0  0  0            999 V2000
M  END
> <Molecule Name>
CVD-0003247

> <SMILES>
[O-][N+](=O)c1cccc2cc3C(CN(Cc3cc12)C(=O)CCl)c1ccccc1

$$$$

  CDD

  0  0  0  0  0  0            999 V2000
M  END
> <Molecule Name>
CVD-0003246

> <SMILES>
CN(C(=O)c1ccc2C(CN(Cc2c1)C(=O)CCl)c1c[nH]cn1)c1c[nH]cn1

$$$$

  CDD

  0  0  0  0  0  0            999 V2000
M  END
> <Molecule Name>
CVD-0003245

> <SMILES>
CC(C)N(C)C(=O)c1ccc2C(CN(Cc2c1)C(=O)CCl)c1c[nH]cn1

$$$$

  CDD

  0  0  0  0  0  0            999 V2000
M  END
> <Molecule Name>
CVD-0003244

> <SMILES>
CN(C(=O)c1ccc2C(CN(Cc2c1)C(=O)CCl)c1ccccc1)c1c[nH]cn1

$$$$

  CDD

  0  0  0  0  0  0            999 V2000
M  END
> <Molecule Name>
CVD-0003243

> <SMILES>
ClCC(=O)N1CCN(Cc2ccc(Br)s2)C(C1)c1cnc[nH]1

$$$$

  CDD

  0  0  0  0  0  0            999 V2000
M  END
> <Molecule Name>
CVD-0003242

> <SMILES>
ClCC(=O)N1CCN(Cc2ccc(Br)s2)C(C1)c1ccccc1

$$$$

  CDD

  0  0  0  0  0  0            999 V2000
M  END
> <Molecule Name>
CVD-0003241

> <SMILES>
Fc1ccc(N(C2CS(=O)(=O)C=C2)C(=O)CCl)c(Cc2c[nH]cn2)c1

$$$$

  CDD

  0  0  0  0  0  0            999 V2000
M  END
> <Molecule Name>
CVD-0003240

> <SMILES>
CC(C)N(C)C(=O)c1ccc2C(CN(Cc2c1)C(=O)CCl)c1ccccc1

$$$$

  CDD

  0  0  0  0  0  0            999 V2000
M  END
> <Molecule Name>
CVD-0003239

> <SMILES>
CC(=O)NC(=O)C(CC1C=CNC1=O)NCC1C[C@@H](C2CCSC2)[C@H](C1)C(N)=O

$$$$

  CDD

  0  0  0  0  0  0            999 V2000
M  END
> <Molecule Name>
CVD-0003238

> <SMILES>
CC(C)NC(=O)C(CC1C=CNC1=O)NCC1C[C@@H](C2CCSC2)[C@H](C1)C(N)=O

$$$$

  CDD

  0  0  0  0  0  0            999 V2000
M  END
> <Molecule Name>
CVD-0003237

> <SMILES>
CCNC(=O)C(CC1C=CNC1=O)NCC1C[C@@H](C2CCSC2)[C@H](C1)C(N)=O

$$$$

  CDD

  0  0  0  0  0  0            999 V2000
M  END
> <Molecule Name>
CVD-0003236

> <SMILES>
Fc1cc(CN(C(=O)Cn2nnc3ccccc23)c2ccc(NC(=O)c3ccccc3)cc2)cs1

$$$$

  CDD

  0  0  0  0  0  0            999 V2000
M  END
> <Molecule Name>
CVD-0003235

> <SMILES>
Cn1ccc(CN(C(=O)Cc2ccc(N)nc2)c2ccc(NC(=O)c3ccccc3)cc2)c1

$$$$

  CDD

  0  0  0  0  0  0            999 V2000
M  END
> <Molecule Name>
CVD-0003234

> <SMILES>
Cc1ccncc1CC(=O)N(Cc1ccn(C)c1)c1ccc(NC(=O)c2ccccc2)cc1

$$$$

  CDD

  0  0  0  0  0  0            999 V2000
M  END
> <Molecule Name>
CVD-0003233

> <SMILES>
Cn1ccc(CN(C(=O)Cc2cccnc2)c2ccc(NC(=O)c3ccccc3)cc2)c1

$$$$

  CDD

  0  0  0  0  0  0            999 V2000
M  END
> <Molecule Name>
CVD-0003232

> <SMILES>
Cn1ccc(CN(C(=O)Cn2nnc3ccccc23)c2ccc(NC(=O)c3ccccc3)cc2)c1

$$$$

  CDD

  0  0  0  0  0  0            999 V2000
M  END
> <Molecule Name>
CVD-0003231

> <SMILES>
Cc1ccncc1CC(=O)N(Cc1ccsc1)c1ccc(NC(=O)c2ccccc2)cc1

$$$$

  CDD

  0  0  0  0  0  0            999 V2000
M  END
> <Molecule Name>
CVD-0003230

> <SMILES>
Nc1ccc(CC(=O)N(Cc2ccsc2)c2ccc(NC(=O)c3ccccc3)cc2)cn1

$$$$

  CDD

  0  0  0  0  0  0            999 V2000
M  END
> <Molecule Name>
CVD-0003229

> <SMILES>
CCC1(CC1)c1ccc(cc1)N(Cc1ccsc1)C(=O)Cn1nnc2ccccc12

$$$$

  CDD

  0  0  0  0  0  0            999 V2000
M  END
> <Molecule Name>
CVD-0003228

> <SMILES>
CN(CCO)c1ccc(cc1)N(Cc1ccsc1)C(=O)Cn1nnc2ccccc12

$$$$

  CDD

  0  0  0  0  0  0            999 V2000
M  END
> <Molecule Name>
CVD-0003227

> <SMILES>
Nc1ccc(cc1)C1(CCCCC1)c1ccc(cc1)N(Cc1ccsc1)C(=O)Cn1nnc2ccccc12

$$$$

  CDD

  0  0  0  0  0  0            999 V2000
M  END
> <Molecule Name>
CVD-0003226

> <SMILES>
CC(C)Cc1ccc(cc1)N(Cc1ccsc1)C(=O)Cn1nnc2ccccc12

$$$$

  CDD

  0  0  0  0  0  0            999 V2000
M  END
> <Molecule Name>
CVD-0003225

> <SMILES>
Nc1ccc(CCC(=O)N(Cc2ccsc2)C(=O)Cn2nnc3ccccc23)cc1

$$$$

  CDD

  0  0  0  0  0  0            999 V2000
M  END
> <Molecule Name>
CVD-0003224

> <SMILES>
CC(C)NCCN(Cc1ccsc1)C(=O)Cn1nnc2ccccc12

$$$$

  CDD

  0  0  0  0  0  0            999 V2000
M  END
> <Molecule Name>
CVD-0003223

> <SMILES>
CCN(C)CCN(Cc1ccsc1)C(=O)Cn1nnc2ccccc12

$$$$

  CDD

  0  0  0  0  0  0            999 V2000
M  END
> <Molecule Name>
CVD-0003222

> <SMILES>
CCC(C)(C)CCN(Cc1ccsc1)C(=O)Cn1nnc2ccccc12

$$$$

  CDD

  0  0  0  0  0  0            999 V2000
M  END
> <Molecule Name>
CVD-0003221

> <SMILES>
O=C(Cc1cccnc1)N(Cc1ccsc1)c1ccc(NC(=O)c2ccccc2)cc1

$$$$

  CDD

  0  0  0  0  0  0            999 V2000
M  END
> <Molecule Name>
CVD-0003220

> <SMILES>
COC(C)CN(Cc1ccsc1)C(=O)Cn1nnc2ccccc12

$$$$

  CDD

  0  0  0  0  0  0            999 V2000
M  END
> <Molecule Name>
CVD-0003219

> <SMILES>
CC(CN(Cc1ccsc1)C(=O)Cn1nnc2ccccc12)N(C)C

$$$$

  CDD

  0  0  0  0  0  0            999 V2000
M  END
> <Molecule Name>
CVD-0003218

> <SMILES>
CC(C)(C)CCN(Cc1ccsc1)C(=O)Cn1nnc2ccccc12

$$$$

  CDD

  0  0  0  0  0  0            999 V2000
M  END
> <Molecule Name>
CVD-0003217

> <SMILES>
Nc1ccc(CC(=O)N(Cc2cc(F)co2)c2ccc(NC(=O)c3ccccc3)cc2)cn1

$$$$

  CDD

  0  0  0  0  0  0            999 V2000
M  END
> <Molecule Name>
CVD-0003216

> <SMILES>
Cc1ccncc1CC(=O)N(Cc1cc(F)co1)c1ccc(NC(=O)c2ccccc2)cc1

$$$$

  CDD

  0  0  0  0  0  0            999 V2000
M  END
> <Molecule Name>
CVD-0003215

> <SMILES>
Fc1coc(CN(C(=O)Cc2cccnc2)c2ccc(NC(=O)c3ccccc3)cc2)c1

$$$$

  CDD

  0  0  0  0  0  0            999 V2000
M  END
> <Molecule Name>
CVD-0003214

> <SMILES>
Fc1coc(CN(C(=O)Cn2nnc3ccccc23)c2ccc(NC(=O)c3ccccc3)cc2)c1

$$$$

  CDD

  0  0  0  0  0  0            999 V2000
M  END
> <Molecule Name>
CVD-0003213

> <SMILES>
Nc1ccc(CC(=O)N(Cc2csc(F)c2)c2ccc(NC(=O)c3ccccc3)cc2)cn1

$$$$

  CDD

  0  0  0  0  0  0            999 V2000
M  END
> <Molecule Name>
CVD-0003212

> <SMILES>
Cc1ccncc1CC(=O)N(Cc1csc(F)c1)c1ccc(NC(=O)c2ccccc2)cc1

$$$$

  CDD

  0  0  0  0  0  0            999 V2000
M  END
> <Molecule Name>
CVD-0003211

> <SMILES>
Fc1cc(CN(C(=O)Cc2cccnc2)c2ccc(NC(=O)c3ccccc3)cc2)cs1

$$$$

  CDD

  0  0  0  0  0  0            999 V2000
M  END
> <Molecule Name>
CVD-0003210

> <SMILES>
O=C(Cn1nnc2ccccc12)N(Cc1ccsc1)c1ccc(NC(=O)c2ccccc2)cc1

$$$$

  CDD

  0  0  0  0  0  0            999 V2000
M  END
> <Molecule Name>
CVD-0003209

> <SMILES>
CCc1cnc2[nH]cc(CCNC(=O)c3ccccc3)c2c1

$$$$

  CDD

  0  0  0  0  0  0            999 V2000
M  END
> <Molecule Name>
CVD-0003208

> <SMILES>
CCc1cnc2[nH]cc(CCNC(=O)C3CCOCC3)c2c1

$$$$

  CDD

  0  0  0  0  0  0            999 V2000
M  END
> <Molecule Name>
CVD-0003207

> <SMILES>
CCN(CC)C(=O)CC1CNCCN1Cc1ccccn1

$$$$

  CDD

  0  0  0  0  0  0            999 V2000
M  END
> <Molecule Name>
CVD-0003206

> <SMILES>
O=c1c(c[nH]cc1-c1ccccn1)-c1cccnc1

$$$$

  CDD

  0  0  0  0  0  0            999 V2000
M  END
> <Molecule Name>
CVD-0003205

> <SMILES>
CC(=O)NCCc1ccnc2c(CCNS(C)(=O)=O)cc(Cl)cc12

$$$$

  CDD

  0  0  0  0  0  0            999 V2000
M  END
> <Molecule Name>
CVD-0003204

> <SMILES>
CCn1cc(CCNC(C)=O)c2cc(cc(C(C)NC(C)=O)c12)C#N

$$$$

  CDD

  0  0  0  0  0  0            999 V2000
M  END
> <Molecule Name>
CVD-0003203

> <SMILES>
CC(NC(C)=O)c1cc(cc2c(CCNC(C)=O)c[nH]c12)C#N

$$$$

  CDD

  0  0  0  0  0  0            999 V2000
M  END
> <Molecule Name>
CVD-0003202

> <SMILES>
CC(NC(C)=O)c1cc(Cl)cc2c(CCNC(C)=O)c[nH]c12

$$$$

  CDD

  0  0  0  0  0  0            999 V2000
M  END
> <Molecule Name>
CVD-0003201

> <SMILES>
CCn1cc(CCNC(C)=O)c2cc(cc(CCNS(C)(=O)=O)c12)C#N

$$$$

  CDD

  0  0  0  0  0  0            999 V2000
M  END
> <Molecule Name>
CVD-0003200

> <SMILES>
CCn1cc(CCNS(C)(=O)=O)c2cc(cc(CCNS(C)(=O)=O)c12)C#N

$$$$

  CDD

  0  0  0  0  0  0            999 V2000
M  END
> <Molecule Name>
CVD-0003199

> <SMILES>
CS(=O)(=O)NCCc1c[nH]c2c(CCNS(C)(=O)=O)cc(Cl)cc12

$$$$

  CDD

  0  0  0  0  0  0            999 V2000
M  END
> <Molecule Name>
CVD-0003198

> <SMILES>
CC(=O)NCCc1cn(CC(=O)N2CCOCC2)c2ccc(cc12)C#N

$$$$

  CDD

  0  0  0  0  0  0            999 V2000
M  END
> <Molecule Name>
CVD-0003197

> <SMILES>
CC(=O)NCCc1cn(CC(=O)N2CCOCC2)c2ccc(Cl)cc12

$$$$

  CDD

  0  0  0  0  0  0            999 V2000
M  END
> <Molecule Name>
CVD-0003196

> <SMILES>
CC(=O)NCCc1ccnc2c(CCNS(C)(=O)=O)cc(cc12)C#N

$$$$

  CDD

  0  0  0  0  0  0            999 V2000
M  END
> <Molecule Name>
CVD-0003195

> <SMILES>
FC1(F)CN(CCCCNC1=O)C(=O)Nc1cnn(c1)C1COC1

$$$$

  CDD

  0  0  0  0  0  0            999 V2000
M  END
> <Molecule Name>
CVD-0003194

> <SMILES>
Clc1cc(NC(=O)N2CCCCNS(=O)(=O)CC2)cs1

$$$$

  CDD

  0  0  0  0  0  0            999 V2000
M  END
> <Molecule Name>
CVD-0003193

> <SMILES>
C(N1CCCCCc2ccccc2C1)c1cncc(c1)-c1cccnc1

$$$$

  CDD

  0  0  0  0  0  0            999 V2000
M  END
> <Molecule Name>
CVD-0003192

> <SMILES>
CCn1nc(C)c(Cn2nnnc2N2CCCCNC(=O)C(F)(F)C2)c1C

$$$$

  CDD

  0  0  0  0  0  0            999 V2000
M  END
> <Molecule Name>
CVD-0003191

> <SMILES>
CC(Cc1ccccc1)(NC(=O)N1CCCCNS(=O)(=O)CC1)C(F)F

$$$$

  CDD

  0  0  0  0  0  0            999 V2000
M  END
> <Molecule Name>
CVD-0003190

> <SMILES>
FC(F)CN(CCNC(=O)N1CCCCNC(=O)C(F)(F)C1)C1CC1

$$$$

  CDD

  0  0  0  0  0  0            999 V2000
M  END
> <Molecule Name>
CVD-0003189

> <SMILES>
CN1C(=O)Cc2cc(NC(=O)N3CCCCNC(=O)C(F)(F)C3)ccc12

$$$$

  CDD

  0  0  0  0  0  0            999 V2000
M  END
> <Molecule Name>
CVD-0003188

> <SMILES>
CN(Cc1ccccn1)C(=O)N1CCCCNS(=O)(=O)CC1

$$$$

  CDD

  0  0  0  0  0  0            999 V2000
M  END
> <Molecule Name>
CVD-0003187

> <SMILES>
NCc1ccc(C(O)NC2CCC(CC2)C(O)=O)c(O)c1

$$$$

  CDD

  0  0  0  0  0  0            999 V2000
M  END
> <Molecule Name>
CVD-0003186

> <SMILES>
NC(N)c1ccc(C(=O)NCc2ccc(cc2)C(O)=O)c(O)c1

$$$$

  CDD

  0  0  0  0  0  0            999 V2000
M  END
> <Molecule Name>
CVD-0003185

> <SMILES>
CN(CCC(N)=O)C(=O)C(=O)N1CC(c2ccccc2)c2ccccc2C1

$$$$

  CDD

  0  0  0  0  0  0            999 V2000
M  END
> <Molecule Name>
CVD-0003184

> <SMILES>
CNCCN(C)C(=O)C(=O)N1CC(c2ccccc2)c2ccccc2C1

$$$$

  CDD

  0  0  0  0  0  0            999 V2000
M  END
> <Molecule Name>
CVD-0003183

> <SMILES>
O=C(\C=C\Cn1cncn1)N1CC(c2ccccc2)c2ccccc2C1

$$$$

  CDD

  0  0  0  0  0  0            999 V2000
M  END
> <Molecule Name>
CVD-0003182

> <SMILES>
CN(C)CC(=C)C(=O)N1CC(c2ccccc2)c2ccccc2C1

$$$$

  CDD

  0  0  0  0  0  0            999 V2000
M  END
> <Molecule Name>
CVD-0003181

> <SMILES>
CN(C)CCC(=C)C(=O)N1CC(c2ccccc2)c2ccccc2C1

$$$$

  CDD

  0  0  0  0  0  0            999 V2000
M  END
> <Molecule Name>
CVD-0003180

> <SMILES>
CN(C)C\C=C\C(=O)N1CC(c2ccccc2)c2ccccc2C1

$$$$

  CDD

  0  0  0  0  0  0            999 V2000
M  END
> <Molecule Name>
CVD-0003179

> <SMILES>
CC(C)(O)c1ccc(C2CN(Cc3ccc(cc23)C(F)(F)F)C(=O)C=C)c(Cl)c1

$$$$

  CDD

  0  0  0  0  0  0            999 V2000
M  END
> <Molecule Name>
CVD-0003178

> <SMILES>
CC(=C)C(=O)N1CC(c2ccccc2Cl)c2cc(ccc2C1)C(F)(F)F

$$$$

  CDD

  0  0  0  0  0  0            999 V2000
M  END
> <Molecule Name>
CVD-0003177

> <SMILES>
FC(F)(F)c1ccc2CN(CC(c3ccccc3Cl)c2c1)C(=O)C=C

$$$$

  CDD

  0  0  0  0  0  0            999 V2000
M  END
> <Molecule Name>
CVD-0003176

> <SMILES>
CC(C)CN(C[C@@H](O)[C@H](Cc1ccccc1)\C=C\c1ccc2ccc(Cl)cc2n1)S(=O)(=O)c1ccc(N)cc1

$$$$

  CDD

  0  0  0  0  0  0            999 V2000
M  END
> <Molecule Name>
CVD-0003175

> <SMILES>
CC(C)(O)c1ccccc1CC[C@H](SC1(CC(O)=O)CC1)c1cccc(NC(=O)OC2CO[C@H]3OCC[C@@H]23)c1

$$$$

  CDD

  0  0  0  0  0  0            999 V2000
M  END
> <Molecule Name>
CVD-0003174

> <SMILES>
CC(=O)N1CC(CCC1c1ccc(NS(=O)(=O)c2ccc(Cl)s2)nc1)c1nc2ccccc2s1

$$$$

  CDD

  0  0  0  0  0  0            999 V2000
M  END
> <Molecule Name>
CVD-0003173

> <SMILES>
CC(=O)N1CC(CCC1c1ccc(NS(=O)(=O)c2ccc(Cl)s2)c(F)c1)c1nc2ccccc2s1

$$$$

  CDD

  0  0  0  0  0  0            999 V2000
M  END
> <Molecule Name>
CVD-0003172

> <SMILES>
Cc1c(O)cccc1C(=O)N[C@@H](CSc1ccccc1)[C@H](O)Cc1nc2cc(Cl)ccc2cc1C(=O)NC(C)(C)C

$$$$

  CDD

  0  0  0  0  0  0            999 V2000
M  END
> <Molecule Name>
CVD-0003171

> <SMILES>
Cc1c(O)cccc1C(=O)N[C@@H](SC1(CC(O)=O)CC1)[C@H](O)CN1C[C@H]2CCCC[C@H]2C[C@H]1C(=O)NC(C)(C)C

$$$$

  CDD

  0  0  0  0  0  0            999 V2000
M  END
> <Molecule Name>
CVD-0003170

> <SMILES>
CC(=O)CCCc1c[nH]c2c(CC(=O)Nc3cnccc3C)cccc12

$$$$

  CDD

  0  0  0  0  0  0            999 V2000
M  END
> <Molecule Name>
CVD-0003169

> <SMILES>
CC(C)(C)NC(=O)[C@@H]1C[C@@H]2CCC(Cl)C[C@@H]2CN1C[C@@H](O)c1cccc(c1)[C@H](CCc1ccccc1C(C)(C)O)SC1(CC(O)=O)CC1

$$$$

  CDD

  0  0  0  0  0  0            999 V2000
M  END
> <Molecule Name>
CVD-0003168

> <SMILES>
CC(C)(O)c1ccccc1CC[C@H](SC1(CC(O)=O)CC1)C(=O)N1CCN(Cc2ccc3ccccc3c2)CC1

$$$$

  CDD

  0  0  0  0  0  0            999 V2000
M  END
> <Molecule Name>
CVD-0003167

> <SMILES>
OB(O)c1cc(cc(Cc2ccccc2)n1)[C@@H]1CCNC1=O

$$$$

  CDD

  0  0  0  0  0  0            999 V2000
M  END
> <Molecule Name>
CVD-0003166

> <SMILES>
O=C1NCC[C@H]1c1cc(Oc2ccccc2)nc(c1)C#N

$$$$

  CDD

  0  0  0  0  0  0            999 V2000
M  END
> <Molecule Name>
CVD-0003165

> <SMILES>
O=C1NCC[C@H]1c1cc(Cc2ccccc2)nc(c1)C#N

$$$$

  CDD

  0  0  0  0  0  0            999 V2000
M  END
> <Molecule Name>
CVD-0003164

> <SMILES>
OB(O)c1cc(cc(Oc2ccccc2)n1)[C@@H]1CCNC1=O

$$$$

  CDD

  0  0  0  0  0  0            999 V2000
M  END
> <Molecule Name>
CVD-0003163

> <SMILES>
Cc1c(C)c(=O)n(-c2cccnc2)c(=O)n1-c1ccccc1

$$$$

  CDD

  0  0  0  0  0  0            999 V2000
M  END
> <Molecule Name>
CVD-0003162

> <SMILES>
Fc1cc2CN(C(=O)N(c3ccccc3)c2cc1Cl)c1cccnc1

$$$$

  CDD

  0  0  0  0  0  0            999 V2000
M  END
> <Molecule Name>
CVD-0003161

> <SMILES>
Fc1cc2cc(-c3cccnc3)c(=O)n(-c3ccccc3)c2cc1Cl

$$$$

  CDD

  0  0  0  0  0  0            999 V2000
M  END
> <Molecule Name>
CVD-0003160

> <SMILES>
O=c1n(-c2ccccc2)c2ccccc2c(=O)n1-c1cccnc1

$$$$

  CDD

  0  0  0  0  0  0            999 V2000
M  END
> <Molecule Name>
CVD-0003159

> <SMILES>
Fc1cc2c(cc1Cl)n(-c1cccc(Cl)c1)c(=O)n(-c1cccnc1)c2=O

$$$$

  CDD

  0  0  0  0  0  0            999 V2000
M  END
> <Molecule Name>
CVD-0003158

> <SMILES>
Brc1ccc2c(c1)n(-c1ccccc1)c(=O)n(-c1cccnc1)c2=O

$$$$

  CDD

  0  0  0  0  0  0            999 V2000
M  END
> <Molecule Name>
CVD-0003157

> <SMILES>
O=C(C=C(C#N)c1cc[nH]n1)N1C[C@@H](c2ccccc2)c2ccccc2C1

$$$$

  CDD

  0  0  0  0  0  0            999 V2000
M  END
> <Molecule Name>
CVD-0003156

> <SMILES>
O=C(C=C(C#N)c1cscn1)N1C[C@@H](c2ccccc2)c2ccccc2C1

$$$$

  CDD

  0  0  0  0  0  0            999 V2000
M  END
> <Molecule Name>
CVD-0003155

> <SMILES>
CN(C)C(=O)C=CC(=O)N1C[C@@H](c2cccc(Cl)c2)c2ccccc2C1

$$$$

  CDD

  0  0  0  0  0  0            999 V2000
M  END
> <Molecule Name>
CVD-0003154

> <SMILES>
O=C(C=C1CCNC1=O)N1C[C@@H](c2ccccc2)c2ccccc2C1

$$$$

  CDD

  0  0  0  0  0  0            999 V2000
M  END
> <Molecule Name>
CVD-0003153

> <SMILES>
Clc1cccc(c1)[C@@H]1CN(Cc2ccccc12)C(=O)C=C1CCNC1=O

$$$$

  CDD

  0  0  0  0  0  0            999 V2000
M  END
> <Molecule Name>
CVD-0003152

> <SMILES>
OC[C@@]1(F)CCN(C1)c1nc(nc2sc3CCCc3c12)-c1cccnc1

$$$$

  CDD

  0  0  0  0  0  0            999 V2000
M  END
> <Molecule Name>
CVD-0003151

> <SMILES>
F[C@]1(CCCOC1)C(=O)N1C[C@@H](c2ccccc2)c2ccccc2C1

$$$$

  CDD

  0  0  0  0  0  0            999 V2000
M  END
> <Molecule Name>
CVD-0003150

> <SMILES>
NCCn1cc(cn1)C(=O)N1CC2(CCC2)c2cc(Br)ccc12

$$$$

  CDD

  0  0  0  0  0  0            999 V2000
M  END
> <Molecule Name>
CVD-0003149

> <SMILES>
Cn1cc(cn1)C(=O)N1C[C@H]([C@@H]2CCCC[C@@H]12)c1ccccc1

$$$$

  CDD

  0  0  0  0  0  0            999 V2000
M  END
> <Molecule Name>
CVD-0003148

> <SMILES>
NCc1cncc(c1)C(=O)N1C[C@H]([C@@H]2CCC[C@H]12)c1ccccc1

$$$$

  CDD

  0  0  0  0  0  0            999 V2000
M  END
> <Molecule Name>
CVD-0003147

> <SMILES>
N[C@H]1CCn2ncc(C(=O)N3C[C@H]([C@@H]4CCC[C@@H]34)c3ccccc3)c2C1

$$$$

  CDD

  0  0  0  0  0  0            999 V2000
M  END
> <Molecule Name>
CVD-0003146

> <SMILES>
CN(C)C(=O)C[C@@H]1CN(C(=O)c2cnn3CCCc23)c2ccc(Cl)cc12

$$$$

  CDD

  0  0  0  0  0  0            999 V2000
M  END
> <Molecule Name>
CVD-0003145

> <SMILES>
CO[C@@H]1COC[C@H]1NC(=O)N1CCC[C@@H]1CN

$$$$

  CDD

  0  0  0  0  0  0            999 V2000
M  END
> <Molecule Name>
CVD-0003144

> <SMILES>
Cc1cccc(CC(=O)NCc2nnn(C)n2)c1

$$$$

  CDD

  0  0  0  0  0  0            999 V2000
M  END
> <Molecule Name>
CVD-0003143

> <SMILES>
Cc1nnccc1C(=O)N1CC[C@@H]2OCC[C@@H]2C1

$$$$

  CDD

  0  0  0  0  0  0            999 V2000
M  END
> <Molecule Name>
CVD-0003142

> <SMILES>
O=C(NC[C@@H]1CC11CC1)c1ccnc2[nH]nnc12

$$$$

  CDD

  0  0  0  0  0  0            999 V2000
M  END
> <Molecule Name>
CVD-0003141

> <SMILES>
C[C@H](NC(=O)c1ccn2c(C)cnc2c1)C(N)=O

$$$$

  CDD

  0  0  0  0  0  0            999 V2000
M  END
> <Molecule Name>
CVD-0003140

> <SMILES>
Cc1nc(CN2C(=O)NC3(CCCC3)C2=O)co1

$$$$

  CDD

  0  0  0  0  0  0            999 V2000
M  END
> <Molecule Name>
CVD-0003139

> <SMILES>
C[C@H](N1CC(C)C1)C(=O)Nc1ccc(O)cc1C

$$$$

  CDD

  0  0  0  0  0  0            999 V2000
M  END
> <Molecule Name>
CVD-0003138

> <SMILES>
O[C@H]1CN(CC11CC1)c1ccc(nn1)C(O)=O

$$$$

  CDD

  0  0  0  0  0  0            999 V2000
M  END
> <Molecule Name>
CVD-0003137

> <SMILES>
C[C@@H](NC(=O)N[C@H]1CC11CC1)c1ccnc(O)c1

$$$$

  CDD

  0  0  0  0  0  0            999 V2000
M  END
> <Molecule Name>
CVD-0003136

> <SMILES>
OC(=O)[C@]12C[C@H]1CN(C2)C(=O)N1CCOCC1

$$$$

  CDD

  0  0  0  0  0  0            999 V2000
M  END
> <Molecule Name>
CVD-0003135

> <SMILES>
C[C@H]1NCC[C@@H]1C(=O)N1CCC[C@H]2CNC[C@@H]12

$$$$

  CDD

  0  0  0  0  0  0            999 V2000
M  END
> <Molecule Name>
CVD-0003134

> <SMILES>
C[C@@H]1CC[C@@H]1NC(=O)N1CC[C@@H](C1)c1nc[nH]n1

$$$$

  CDD

  0  0  0  0  0  0            999 V2000
M  END
> <Molecule Name>
CVD-0003133

> <SMILES>
O=C(N[C@@H]1[C@H]2CCC[C@@H]12)N1CCn2cncc2C1

$$$$

  CDD

  0  0  0  0  0  0            999 V2000
M  END
> <Molecule Name>
CVD-0003132

> <SMILES>
NCCNC(=O)N1Cc2ccccc2NC(=O)C1

$$$$

  CDD

  0  0  0  0  0  0            999 V2000
M  END
> <Molecule Name>
CVD-0003131

> <SMILES>
Oc1cc(cc(n1)C1CC1)C(=O)N[C@@H]1CC11CC1

$$$$

  CDD

  0  0  0  0  0  0            999 V2000
M  END
> <Molecule Name>
CVD-0003130

> <SMILES>
C[C@@H]1CN(CCC1(F)F)c1cccnn1

$$$$

  CDD

  0  0  0  0  0  0            999 V2000
M  END
> <Molecule Name>
CVD-0003129

> <SMILES>
Cc1nc(O)[nH]c1C(=O)N1CCCc2n[nH]cc12

$$$$

  CDD

  0  0  0  0  0  0            999 V2000
M  END
> <Molecule Name>
CVD-0003128

> <SMILES>
O=C1C[C@@H]2CC[C@H](C1)N2c1ncnc2[nH]ccc12

$$$$

  CDD

  0  0  0  0  0  0            999 V2000
M  END
> <Molecule Name>
CVD-0003127

> <SMILES>
O=C(N[C@H]1[C@H]2CCC[C@@H]12)c1ccc2nc[nH]c2n1

$$$$

  CDD

  0  0  0  0  0  0            999 V2000
M  END
> <Molecule Name>
CVD-0003126

> <SMILES>
F[C@@H]1CCCN(C1)C(=O)c1ccnc2[nH]cnc12

$$$$

  CDD

  0  0  0  0  0  0            999 V2000
M  END
> <Molecule Name>
CVD-0003125

> <SMILES>
O=C(COC1CNC1)N1CCC[C@H]2CNC[C@@H]12

$$$$

  CDD

  0  0  0  0  0  0            999 V2000
M  END
> <Molecule Name>
CVD-0003124

> <SMILES>
C[C@H]1CN(CCN1)C(=O)c1c[nH]cc(C)c1=O

$$$$

  CDD

  0  0  0  0  0  0            999 V2000
M  END
> <Molecule Name>
CVD-0003123

> <SMILES>
Cn1cncc1CNC(=O)N1CCC[C@@H](F)C1

$$$$

  CDD

  0  0  0  0  0  0            999 V2000
M  END
> <Molecule Name>
CVD-0003122

> <SMILES>
Oc1cccnc1CN1CCC2(C1)CCOCC2

$$$$

  CDD

  0  0  0  0  0  0            999 V2000
M  END
> <Molecule Name>
CVD-0003121

> <SMILES>
C[C@H]1C[C@@H](CO1)C(=O)N1Cc2cccnc2C1

$$$$

  CDD

  0  0  0  0  0  0            999 V2000
M  END
> <Molecule Name>
CVD-0003120

> <SMILES>
Cc1ncc(C)c(N[C@H]2CCc3n[nH]cc3C2)n1

$$$$

  CDD

  0  0  0  0  0  0            999 V2000
M  END
> <Molecule Name>
CVD-0003119

> <SMILES>
C[C@@H]1C[C@H](N)CCN1C(=O)c1n[nH]c(C)c1C

$$$$

  CDD

  0  0  0  0  0  0            999 V2000
M  END
> <Molecule Name>
CVD-0003118

> <SMILES>
Oc1nnc(o1)[C@@H]1CCCN(C1)c1cccnn1

$$$$

  CDD

  0  0  0  0  0  0            999 V2000
M  END
> <Molecule Name>
CVD-0003117

> <SMILES>
CC(=O)NCC(=O)N1CC[C@@]2(C1)CCCNC2

$$$$

  CDD

  0  0  0  0  0  0            999 V2000
M  END
> <Molecule Name>
CVD-0003116

> <SMILES>
CCc1cc(n[nH]1)C(=O)N1CCn2nncc2C1

$$$$

  CDD

  0  0  0  0  0  0            999 V2000
M  END
> <Molecule Name>
CVD-0003115

> <SMILES>
C[C@@H](NC(=O)N1CCCCCO1)[C@@H]1CCOC1

$$$$

  CDD

  0  0  0  0  0  0            999 V2000
M  END
> <Molecule Name>
CVD-0003114

> <SMILES>
C[C@H]1C[C@@H](O)CN1C(=O)[C@H]1CC[C@H](C)CC1

$$$$

  CDD

  0  0  0  0  0  0            999 V2000
M  END
> <Molecule Name>
CVD-0003113

> <SMILES>
CCn1nccc1NC(=O)N1CCCCCO1

$$$$

  CDD

  0  0  0  0  0  0            999 V2000
M  END
> <Molecule Name>
CVD-0003112

> <SMILES>
C[C@@H]1N(CCc2ccccc12)c1nnnn1C

$$$$

  CDD

  0  0  0  0  0  0            999 V2000
M  END
> <Molecule Name>
CVD-0003111

> <SMILES>
CSCc1cc(C(N)=O)c(CS)cc1C(N)=O

$$$$

  CDD

  0  0  0  0  0  0            999 V2000
M  END
> <Molecule Name>
CVD-0003110

> <SMILES>
NC(=O)c1ccc(CC2C=NC=N2)cc1CNC(=O)C1CCOCC1

$$$$

  CDD

  0  0  0  0  0  0            999 V2000
M  END
> <Molecule Name>
CVD-0003109

> <SMILES>
NC(=O)c1ccc(cc1CNC(=O)C1CCOCC1)C#N

$$$$

  CDD

  0  0  0  0  0  0            999 V2000
M  END
> <Molecule Name>
CVD-0003108

> <SMILES>
Cc1ccc(OCC(=O)N2CCN(CCCCC(=O)Nc3cnccc3C)CC2)cc1

$$$$

  CDD

  0  0  0  0  0  0            999 V2000
M  END
> <Molecule Name>
CVD-0003107

> <SMILES>
NS(=O)(=O)c1ccc2CCCN(CCNC(=O)Cc3c[nH]c4ncccc34)c2c1

$$$$

  CDD

  0  0  0  0  0  0            999 V2000
M  END
> <Molecule Name>
CVD-0003106

> <SMILES>
NS(=O)(=O)c1ccc2CCCN(CCC(Cc3ccncc3)NC(=O)NC3CCCCC3)c2c1

$$$$

  CDD

  0  0  0  0  0  0            999 V2000
M  END
> <Molecule Name>
CVD-0003105

> <SMILES>
NS(=O)(=O)c1ccc2CCCN(CCC(CNC(=O)NC3CCCCC3)c3ccncc3)c2c1

$$$$

  CDD

  0  0  0  0  0  0            999 V2000
M  END
> <Molecule Name>
CVD-0003104

> <SMILES>
CCNc1ncc(cc1Cc1nnc(C)s1)C#N

$$$$

  CDD

  0  0  0  0  0  0            999 V2000
M  END
> <Molecule Name>
CVD-0003103

> <SMILES>
Cc1ccncc1NC(=O)CC(CNS(C)(=O)=O)c1ccccc1

$$$$

  CDD

  0  0  0  0  0  0            999 V2000
M  END
> <Molecule Name>
CVD-0003102

> <SMILES>
COC(=O)c1cc(ccc1CCC(=O)Nc1cnccc1C)S(N)(=O)=O

$$$$

  CDD

  0  0  0  0  0  0            999 V2000
M  END
> <Molecule Name>
CVD-0003101

> <SMILES>
CS(=O)(=O)NCCC1(CC(=O)Nc2cccnc2)CCCCC1

$$$$

  CDD

  0  0  0  0  0  0            999 V2000
M  END
> <Molecule Name>
CVD-0003100

> <SMILES>
O=C(NCc1ccc(cn1)C#N)N1CCOCC1

$$$$

  CDD

  0  0  0  0  0  0            999 V2000
M  END
> <Molecule Name>
CVD-0003099

> <SMILES>
Cc1ccc(OCC(=O)Nc2ccc(cn2)C#N)cc1

$$$$

  CDD

  0  0  0  0  0  0            999 V2000
M  END
> <Molecule Name>
CVD-0003098

> <SMILES>
Cc1nnc(CCN2CCCc3ccc(cc23)S(N)(=O)=O)s1

$$$$

  CDD

  0  0  0  0  0  0            999 V2000
M  END
> <Molecule Name>
CVD-0003097

> <SMILES>
CC(=O)Nc1cnccc1CCNC(=O)NC1CCCCC1

$$$$

  CDD

  0  0  0  0  0  0            999 V2000
M  END
> <Molecule Name>
CVD-0003096

> <SMILES>
Cc1ccc(OCC(=O)N2CCN3CCc4ccc(cc4C3C2)S(N)(=O)=O)cc1

$$$$

  CDD

  0  0  0  0  0  0            999 V2000
M  END
> <Molecule Name>
CVD-0003095

> <SMILES>
CS(=O)(=O)NCCCN1CCCc2ccc(cc12)S(N)(=O)=O

$$$$

  CDD

  0  0  0  0  0  0            999 V2000
M  END
> <Molecule Name>
CVD-0003094

> <SMILES>
CS(=O)(=O)NCC(CCC(CCNC(=O)NC1CCCCC1)c1ccncc1)c1ccccc1

$$$$

  CDD

  0  0  0  0  0  0            999 V2000
M  END
> <Molecule Name>
CVD-0003093

> <SMILES>
Cc1ccncc1NC(=O)CC(N1CCC(O)CC1)c1ccsc1

$$$$

  CDD

  0  0  0  0  0  0            999 V2000
M  END
> <Molecule Name>
CVD-0003092

> <SMILES>
Cc1ccncc1NC(=O)C[C@@H]1CC[C@@H]([C@@H]1c1ccsc1)C(N)=O

$$$$

  CDD

  0  0  0  0  0  0            999 V2000
M  END
> <Molecule Name>
CVD-0003091

> <SMILES>
CCNc1ncc(cc1CCC(N)=N)C#N

$$$$

  CDD

  0  0  0  0  0  0            999 V2000
M  END
> <Molecule Name>
CVD-0003090

> <SMILES>
NS(=O)(=O)c1ccc2CCCN(CCN3CCC(O)CC3)c2c1

$$$$

  CDD

  0  0  0  0  0  0            999 V2000
M  END
> <Molecule Name>
CVD-0003089

> <SMILES>
CS(=O)(=O)NCCc1cccc2cc(ccc12)S(N)(=O)=O

$$$$

  CDD

  0  0  0  0  0  0            999 V2000
M  END
> <Molecule Name>
CVD-0003088

> <SMILES>
CS(=O)(=O)NCCc1ccc2ccc(cc2c1)S(N)(=O)=O

$$$$

  CDD

  0  0  0  0  0  0            999 V2000
M  END
> <Molecule Name>
CVD-0003087

> <SMILES>
Cc1ccncc1NC(=O)CCc1cc(ccc1Br)S(N)(=O)=O

$$$$

  CDD

  0  0  0  0  0  0            999 V2000
M  END
> <Molecule Name>
CVD-0003086

> <SMILES>
CCn1cc(CCNC(C)=O)c2cc(ccc12)C#N

$$$$

  CDD

  0  0  0  0  0  0            999 V2000
M  END
> <Molecule Name>
CVD-0003085

> <SMILES>
Cc1ccncc1NC(=O)CCCCC(N)=N

$$$$

  CDD

  0  0  0  0  0  0            999 V2000
M  END
> <Molecule Name>
CVD-0003084

> <SMILES>
NC(=N)CCCCN1CCCc2ccc(cc12)S(N)(=O)=O

$$$$

  CDD

  0  0  0  0  0  0            999 V2000
M  END
> <Molecule Name>
CVD-0003083

> <SMILES>
NS(=O)(=O)c1ccc2CCCN(CCNC(=O)N3CCCCC3)c2c1

$$$$

  CDD

  0  0  0  0  0  0            999 V2000
M  END
> <Molecule Name>
CVD-0003082

> <SMILES>
CCNc1ccc(C#N)c2ccc(cc12)S(N)(=O)=O

$$$$

  CDD

  0  0  0  0  0  0            999 V2000
M  END
> <Molecule Name>
CVD-0003081

> <SMILES>
Cc1ccncc1NC(=O)Cc1ccc(cn1)N1CCCOCC1

$$$$

  CDD

  0  0  0  0  0  0            999 V2000
M  END
> <Molecule Name>
CVD-0003080

> <SMILES>
NS(=O)(=O)c1ccc2CCCN(CCNC(=O)Nc3cccnc3)c2c1

$$$$

  CDD

  0  0  0  0  0  0            999 V2000
M  END
> <Molecule Name>
CVD-0003079

> <SMILES>
NC(=O)[C@H]1CCC[C@H]1c1csc2cc(ccc12)S(N)(=O)=O

$$$$

  CDD

  0  0  0  0  0  0            999 V2000
M  END
> <Molecule Name>
CVD-0003078

> <SMILES>
NC(=O)[C@H]1CCCC1N1CCCc2ccc(cc12)S(N)(=O)=O

$$$$

  CDD

  0  0  0  0  0  0            999 V2000
M  END
> <Molecule Name>
CVD-0003077

> <SMILES>
CCNc1nscc1CN1CCC(O)CC1

$$$$

  CDD

  0  0  0  0  0  0            999 V2000
M  END
> <Molecule Name>
CVD-0003076

> <SMILES>
CCNc1ncc(cc1[C@@H]1CCC[C@@H]1C(N)=O)C#N

$$$$

  CDD

  0  0  0  0  0  0            999 V2000
M  END
> <Molecule Name>
CVD-0003075

> <SMILES>
Cc1ccncc1NC(=O)CCNC(=O)c1ccccc1F

$$$$

  CDD

  0  0  0  0  0  0            999 V2000
M  END
> <Molecule Name>
CVD-0003074

> <SMILES>
CN(Cc1cc(C)on1)C(=O)N(C1CC1)C1CC(CN(C1)S(C)(=O)=O)c1ccccc1

$$$$

  CDD

  0  0  0  0  0  0            999 V2000
M  END
> <Molecule Name>
CVD-0003073

> <SMILES>
Cc1ccncc1NC(=O)Cc1cc(ccc1CNC(=O)N1CCOCC1)C#N

$$$$

  CDD

  0  0  0  0  0  0            999 V2000
M  END
> <Molecule Name>
CVD-0003072

> <SMILES>
Cc1cc(CN(CCCCN2CCCc3ccc(cc23)S(N)(=O)=O)C(=O)NC2CC2)no1

$$$$

  CDD

  0  0  0  0  0  0            999 V2000
M  END
> <Molecule Name>
CVD-0003071

> <SMILES>
CCNCC1(CCCCC1)C(=O)Nc1cccnc1

$$$$

  CDD

  0  0  0  0  0  0            999 V2000
M  END
> <Molecule Name>
CVD-0003070

> <SMILES>
CC(=O)NCCc1c[nH]c2c(CC(=O)Nc3cnccc3C)cc(F)cc12

$$$$

  CDD

  0  0  0  0  0  0            999 V2000
M  END
> <Molecule Name>
CVD-0003069

> <SMILES>
CCNc1ncc(cc1CC(=O)Nc1cnccc1C)C#N

$$$$

  CDD

  0  0  0  0  0  0            999 V2000
M  END
> <Molecule Name>
CVD-0003068

> <SMILES>
CCNc1ccc(cc1NC(=O)Nc1ccccc1)C#N

$$$$

  CDD

  0  0  0  0  0  0            999 V2000
M  END
> <Molecule Name>
CVD-0003067

> <SMILES>
CCNc1ncc(cc1NC(=O)Nc1ccccc1)C#N

$$$$

  CDD

  0  0  0  0  0  0            999 V2000
M  END
> <Molecule Name>
CVD-0003066

> <SMILES>
CS(=O)(=O)NCCc1cc(ccc1CNC(=O)N1CCCCC1)C#N

$$$$

  CDD

  0  0  0  0  0  0            999 V2000
M  END
> <Molecule Name>
CVD-0003065

> <SMILES>
Cc1ccncc1NC(=O)CCN1CCCc2ccc(cc12)S(N)(=O)=O

$$$$

  CDD

  0  0  0  0  0  0            999 V2000
M  END
> <Molecule Name>
CVD-0003064

> <SMILES>
Cc1nnc(s1)C(N1CCCC(F)C1)C(=O)Nc1cnccc1C

$$$$

  CDD

  0  0  0  0  0  0            999 V2000
M  END
> <Molecule Name>
CVD-0003063

> <SMILES>
NS(=O)(=O)c1ccc2CC[C@H](C[C@@H](N3CCN(CC3)C(=O)CCl)c3ccc(Br)s3)Nc2c1

$$$$

  CDD

  0  0  0  0  0  0            999 V2000
M  END
> <Molecule Name>
CVD-0003062

> <SMILES>
ClCC(=O)N1CCN(CC1)S(=O)(=O)c1ccc(Cl)c(C[C@@H]2CN(CCO2)C(=O)NCc2ccc(cc2)C#N)c1

$$$$

  CDD

  0  0  0  0  0  0            999 V2000
M  END
> <Molecule Name>
CVD-0003061

> <SMILES>
[O-][N+](=O)c1ccc(CNC(=O)N2CCO[C@H](Cc3cc(ccc3Cl)S(=O)(=O)N3CCN(CC3)C(=O)CCl)C2)cc1

$$$$

  CDD

  0  0  0  0  0  0            999 V2000
M  END
> <Molecule Name>
CVD-0003060

> <SMILES>
[CH2]C(=O)N1CCN(CC1)S(=O)(=O)C1=CC([C@H]2CN(CCO2)C(=O)NCc2ccc(cc2)C#N)C(Cl)=C[CH]1

$$$$

  CDD

  0  0  0  0  0  0            999 V2000
M  END
> <Molecule Name>
CVD-0003059

> <SMILES>
NS(=O)(=O)c1ccc(Br)c(CCN2CCCN(CC2)C(=O)CCl)c1

$$$$

  CDD

  0  0  0  0  0  0            999 V2000
M  END
> <Molecule Name>
CVD-0003058

> <SMILES>
Cc1ccncc1NC(=O)[C@@H](CNS(C)(=O)=O)c1ccccc1

$$$$

  CDD

  0  0  0  0  0  0            999 V2000
M  END
> <Molecule Name>
CVD-0003057

> <SMILES>
Cc1ccncc1NC(=O)COC(=O)c1ccc(cc1)S(N)(=O)=O

$$$$

  CDD

  0  0  0  0  0  0            999 V2000
M  END
> <Molecule Name>
CVD-0003056

> <SMILES>
CCNc1ncc(cc1C(N1CCN(CC1)C(=O)CCl)c1ccc(Br)s1)C#N

$$$$

  CDD

  0  0  0  0  0  0            999 V2000
M  END
> <Molecule Name>
CVD-0003055

> <SMILES>
ClCC(=O)N1CCN(CC1)C(c1ccc(Br)s1)c1cc(ccc1CNC(=O)N1CCOCC1)C#N

$$$$

  CDD

  0  0  0  0  0  0            999 V2000
M  END
> <Molecule Name>
CVD-0003054

> <SMILES>
CC(=O)NCCc1c[nH]c2c(cccc12)C(N1CCN(CC1)C(=O)CCl)c1ccc(Br)s1

$$$$

  CDD

  0  0  0  0  0  0            999 V2000
M  END
> <Molecule Name>
CVD-0003053

> <SMILES>
ClCC(=O)N1CC[C@@H]([C@@H](CCc2ccccc2)C1)C(=O)N1CCCCC1

$$$$

  CDD

  0  0  0  0  0  0            999 V2000
M  END
> <Molecule Name>
CVD-0003052

> <SMILES>
CC(=O)NCCc1c[nH]c2c(cccc12)C(CCc1ccc(cc1)C(F)(F)F)N1CCN(CC1)C(=O)CCl

$$$$

  CDD

  0  0  0  0  0  0            999 V2000
M  END
> <Molecule Name>
CVD-0003051

> <SMILES>
CC(=O)NCCc1c[nH]c2c(cccc12)C(CCc1ccc(C)cc1)N1CCN(CC1)C(=O)CCl

$$$$

  CDD

  0  0  0  0  0  0            999 V2000
M  END
> <Molecule Name>
CVD-0003050

> <SMILES>
CC(=O)NCCc1c[nH]c2c(cccc12)C(CCc1ccccc1)N1CCN(CC1)C(=O)CCl

$$$$

  CDD

  0  0  0  0  0  0            999 V2000
M  END
> <Molecule Name>
CVD-0003049

> <SMILES>
Cc1ccc(CCC(N2CCN(CC2)C(=O)CCl)c2cccc(c2)C#N)cc1

$$$$

  CDD

  0  0  0  0  0  0            999 V2000
M  END
> <Molecule Name>
CVD-0003048

> <SMILES>
FC(F)(F)c1ccc(CCC(N2CCN(CC2)C(=O)CCl)c2cccc(c2)C#N)cc1

$$$$

  CDD

  0  0  0  0  0  0            999 V2000
M  END
> <Molecule Name>
CVD-0003047

> <SMILES>
ClCC(=O)N1CCN(CC1)C(CCc1ccccc1)c1cccc(c1)C#N

$$$$

  CDD

  0  0  0  0  0  0            999 V2000
M  END
> <Molecule Name>
CVD-0003046

> <SMILES>
Cc1ccc(CCC(N2CCN(CC2)C(=O)CCl)c2cccc(Cl)c2)cc1

$$$$

  CDD

  0  0  0  0  0  0            999 V2000
M  END
> <Molecule Name>
CVD-0003045

> <SMILES>
FC(F)(F)c1ccc(CCC(N2CCN(CC2)C(=O)CCl)c2cccc(Cl)c2)cc1

$$$$

  CDD

  0  0  0  0  0  0            999 V2000
M  END
> <Molecule Name>
CVD-0003044

> <SMILES>
ClCC(=O)N1CCN(CC1)C(CCc1ccccc1)c1cccc(Cl)c1

$$$$

  CDD

  0  0  0  0  0  0            999 V2000
M  END
> <Molecule Name>
CVD-0003043

> <SMILES>
ClCC(=O)N1CCN(CC1)C(c1ccc(Br)s1)c1cccc(Cl)c1

$$$$

  CDD

  0  0  0  0  0  0            999 V2000
M  END
> <Molecule Name>
CVD-0003042

> <SMILES>
ClCC(=O)N1CCN(CC1)C(c1ccc(Br)s1)c1cc(Cl)cc2ccccc12

$$$$

  CDD

  0  0  0  0  0  0            999 V2000
M  END
> <Molecule Name>
CVD-0003041

> <SMILES>
NS(=O)(=O)c1ccc2CCCN(CCCCC3CCCN(C3)C(=O)CCl)c2c1

$$$$

  CDD

  0  0  0  0  0  0            999 V2000
M  END
> <Molecule Name>
CVD-0003040

> <SMILES>
Cc1ccncc1NC(=C)CCn1c(nc2ccccc12)C1CCCN(C1)C(=O)CCl

$$$$

  CDD

  0  0  0  0  0  0            999 V2000
M  END
> <Molecule Name>
CVD-0003039

> <SMILES>
ClCC(=O)N1CCCC(C1)c1nc2ccccc2n1CCC(=O)Nc1cccnc1

$$$$

  CDD

  0  0  0  0  0  0            999 V2000
M  END
> <Molecule Name>
CVD-0003038

> <SMILES>
ClCC(=O)N1CCN(Cc2scc3ccccc23)CC1

$$$$

  CDD

  0  0  0  0  0  0            999 V2000
M  END
> <Molecule Name>
CVD-0003037

> <SMILES>
ClCC(=O)N1CCN(Cc2cc(Cl)cc(Cl)c2)CC1

$$$$

  CDD

  0  0  0  0  0  0            999 V2000
M  END
> <Molecule Name>
CVD-0003036

> <SMILES>
CC(C)CC(COC[C@H]1CC[C@@H](CNC(=O)c2ccn(C)n2)O1)C(=O)NC([C@@H](C)O)C(=O)NC(Cc1ccccc1)C(O)=O

$$$$

  CDD

  0  0  0  0  0  0            999 V2000
M  END
> <Molecule Name>
CVD-0003035

> <SMILES>
CC(C)CC(COC[C@H]1CC[C@@H](CNC(=O)c2ccn(C)n2)O1)C(=O)NC([C@@H](C)O)C(=O)NC(Cc1ccccc1)C(=O)NC(CCC(N)=O)C(O)=O

$$$$

  CDD

  0  0  0  0  0  0            999 V2000
M  END
> <Molecule Name>
CVD-0003034

> <SMILES>
CC(C)CC(NC1CC[C@@H](CNC(=O)c2ccn(C)n2)O1)C(=O)NC([C@@H](C)O)C(=O)NC(Cc1ccccc1)C(O)=O

$$$$

  CDD

  0  0  0  0  0  0            999 V2000
M  END
> <Molecule Name>
CVD-0003033

> <SMILES>
CC(C)CC(NC1CC[C@@H](CNC(=O)c2ccn(C)n2)O1)C(=O)NC([C@@H](C)O)C(=O)NC(Cc1ccccc1)C(=O)NC(CCC(N)=O)C(O)=O

$$$$

  CDD

  0  0  0  0  0  0            999 V2000
M  END
> <Molecule Name>
CVD-0003032

> <SMILES>
Cn1cc2N(CCc3ccccc3)CN(C[C@@H]3CCCO3)C(=O)c2n1

$$$$

  CDD

  0  0  0  0  0  0            999 V2000
M  END
> <Molecule Name>
CVD-0003031

> <SMILES>
Cn1cc2NCN(C[C@@H]3CCCO3)C(=O)c2n1

$$$$

  CDD

  0  0  0  0  0  0            999 V2000
M  END
> <Molecule Name>
CVD-0003030

> <SMILES>
Cn1cc(CCCc2ccccc2)c(n1)C(=O)NC[C@@H]1CCCO1

$$$$

  CDD

  0  0  0  0  0  0            999 V2000
M  END
> <Molecule Name>
CVD-0003029

> <SMILES>
Cc1cc2oc3C(=O)N(CCCO)[C@@H](c3c(=O)c2cc1Cl)c1ccc(Br)cc1

$$$$

  CDD

  0  0  0  0  0  0            999 V2000
M  END
> <Molecule Name>
CVD-0003028

> <SMILES>
Cc1cc2oc3C(=O)N(CCCO)[C@@H](c3c(=O)c2cc1Cl)c1ccc(Cl)cc1

$$$$

  CDD

  0  0  0  0  0  0            999 V2000
M  END
> <Molecule Name>
CVD-0003027

> <SMILES>
Cc1cc2oc3C(=O)N(CCCO)[C@@H](c3c(=O)c2cc1Cl)c1ccc(F)cc1

$$$$

  CDD

  0  0  0  0  0  0            999 V2000
M  END
> <Molecule Name>
CVD-0003026

> <SMILES>
NS(=O)(=O)c1ccc2CCCN(CCCN3CCN(CC3)C(=O)CCl)c2c1

$$$$

  CDD

  0  0  0  0  0  0            999 V2000
M  END
> <Molecule Name>
CVD-0003025

> <SMILES>
CC(=O)NCCc1c[nH]c2c(CN3CCN(CC3)C(C)=O)cccc12

$$$$

  CDD

  0  0  0  0  0  0            999 V2000
M  END
> <Molecule Name>
CVD-0003024

> <SMILES>
CC(=O)N1CCN(Cc2cccc(c2)N2CCCCC2)CC1

$$$$

  CDD

  0  0  0  0  0  0            999 V2000
M  END
> <Molecule Name>
CVD-0003023

> <SMILES>
CC#Cc1cccc(CN2CCN(CC2)C(C)=O)c1

$$$$

  CDD

  0  0  0  0  0  0            999 V2000
M  END
> <Molecule Name>
CVD-0003022

> <SMILES>
CC(=O)N1CCN(Cc2cccc(c2)C#N)CC1

$$$$

  CDD

  0  0  0  0  0  0            999 V2000
M  END
> <Molecule Name>
CVD-0003021

> <SMILES>
OCCC#Cc1ccc(CNC(=O)N2CCOCC2)cc1

$$$$

  CDD

  0  0  0  0  0  0            999 V2000
M  END
> <Molecule Name>
CVD-0003020

> <SMILES>
NC(=O)C#Cc1ccc(CNC(=O)N2CCOCC2)cc1

$$$$

  CDD

  0  0  0  0  0  0            999 V2000
M  END
> <Molecule Name>
CVD-0003019

> <SMILES>
COC(=O)C#Cc1ccc(CNC(=O)N2CCOCC2)cc1

$$$$

  CDD

  0  0  0  0  0  0            999 V2000
M  END
> <Molecule Name>
CVD-0003018

> <SMILES>
BrC#Cc1ccc(CNC(=O)N2CCOCC2)cc1

$$$$

  CDD

  0  0  0  0  0  0            999 V2000
M  END
> <Molecule Name>
CVD-0003017

> <SMILES>
O=C(NCc1ccc(cc1)C#C)N1CCOCC1

$$$$

  CDD

  0  0  0  0  0  0            999 V2000
M  END
> <Molecule Name>
CVD-0003016

> <SMILES>
COc1ccc(cc1O)C1CC(=O)c2c(O)cc(O)cc2O1

$$$$

  CDD

  0  0  0  0  0  0            999 V2000
M  END
> <Molecule Name>
CVD-0003015

> <SMILES>
Oc1ccc(cc1)-c1oc2c(O)c(O)cc(O)c2c(=O)c1O

$$$$

  CDD

  0  0  0  0  0  0            999 V2000
M  END
> <Molecule Name>
CVD-0003014

> <SMILES>
COc1ccc(cc1O)[C@@H]1CC(=O)c2c(O)cc(O[C@@H]3O[C@H](CO[C@@H]4O[C@@H](C)[C@H](O)[C@@H](O)[C@H]4O)[C@@H](O)[C@H](O)[C@H]3O)cc2O1

$$$$

  CDD

  0  0  0  0  0  0            999 V2000
M  END
> <Molecule Name>
CVD-0003013

> <SMILES>
CCN(CCO)CCCC(C)Nc1ccnc2cc(Cl)ccc12

$$$$

  CDD

  0  0  0  0  0  0            999 V2000
M  END
> <Molecule Name>
CVD-0003012

> <SMILES>
NC(=O)NCCC1=CNC2C1C=C(F)C=C2CCN1CCCOCC1

$$$$

  CDD

  0  0  0  0  0  0            999 V2000
M  END
> <Molecule Name>
CVD-0003011

> <SMILES>
NC(=O)NCCc1c[nH]c2c(CCN3CCCOCC3)cc(F)cc12

$$$$

  CDD

  0  0  0  0  0  0            999 V2000
M  END
> <Molecule Name>
CVD-0003010

> <SMILES>
Cc1cc(Cl)c(cc1C)S(=O)(=O)c1c(cc(cc1[N+]([O-])=O)C(F)(F)F)[N+]([O-])=O

$$$$

  CDD

  0  0  0  0  0  0            999 V2000
M  END
> <Molecule Name>
CVD-0003009

> <SMILES>
NC(=O)c1ccc2N(Cc3ccc4ccccc4c3)C(=O)C(=O)c2c1

$$$$

  CDD

  0  0  0  0  0  0            999 V2000
M  END
> <Molecule Name>
CVD-0003008

> <SMILES>
Clc1ccc(cc1)-c1ccc(o1)C(=O)Oc1cncc(Cl)c1

$$$$

  CDD

  0  0  0  0  0  0            999 V2000
M  END
> <Molecule Name>
CVD-0003007

> <SMILES>
Clc1cncc(OC(=O)c2cc3ccccc3s2)c1

$$$$

  CDD

  0  0  0  0  0  0            999 V2000
M  END
> <Molecule Name>
CVD-0003006

> <SMILES>
Clc1cncc(OC(=O)c2cc3ccccc3[nH]2)c1

$$$$

  CDD

  0  0  0  0  0  0            999 V2000
M  END
> <Molecule Name>
CVD-0003005

> <SMILES>
Clc1cncc(OC(=O)c2cc3ccccc3o2)c1

$$$$

  CDD

  0  0  0  0  0  0            999 V2000
M  END
> <Molecule Name>
CVD-0003004

> <SMILES>
C[C@H]1COC2=C1C(=O)C(=O)c1c3CCCC(C)(C)c3ccc21

$$$$

  CDD

  0  0  0  0  0  0            999 V2000
M  END
> <Molecule Name>
CVD-0003003

> <SMILES>
CCOC(=O)\C=C\[C@H](C[C@@H]1CCNC1=O)NC(=O)[C@H](CC(C)C)NC(=O)[C@@H](NC(=O)OCc1ccccc1)C(C)OC(C)(C)C

$$$$

  CDD

  0  0  0  0  0  0            999 V2000
M  END
> <Molecule Name>
CVD-0003002

> <SMILES>
CCOC(=O)\C=C\[C@H](C[C@@H]1CCNC1=O)NC(=O)[C@H](CC(C)C)NC(=O)[C@@H](NC(=O)OCc1ccccc1)C(C)C

$$$$

  CDD

  0  0  0  0  0  0            999 V2000
M  END
> <Molecule Name>
CVD-0003001

> <SMILES>
CC(OC(C)(C)C)[C@H](NC(=O)OCc1ccccc1)C(=O)N[C@@H](CC1CCCCC1)C(=O)N[C@@H](C[C@@H]1CCNC1=O)C=O

$$$$

  CDD

  0  0  0  0  0  0            999 V2000
M  END
> <Molecule Name>
CVD-0003000

> <SMILES>
Clc1cncc(OC(=O)c2ccco2)c1

$$$$

  CDD

  0  0  0  0  0  0            999 V2000
M  END
> <Molecule Name>
CVD-0002999

> <SMILES>
OC1CCN(Cc2csc(NS(=O)(=O)Cc3cccc4CCN(Cc34)C(=O)CCl)c2)CC1

$$$$

  CDD

  0  0  0  0  0  0            999 V2000
M  END
> <Molecule Name>
CVD-0002998

> <SMILES>
ClCC(=O)N1CCc2cc(ccc2C1)S(=O)(=O)Nc1cc(Nc2cncc(c2)C#C)cs1

$$$$

  CDD

  0  0  0  0  0  0            999 V2000
M  END
> <Molecule Name>
CVD-0002997

> <SMILES>
ClCC(=O)N1CCN(CCS(=O)(=O)Nc2cc(Nc3cncc(c3)C#C)cs2)CC1

$$$$

  CDD

  0  0  0  0  0  0            999 V2000
M  END
> <Molecule Name>
CVD-0002996

> <SMILES>
CC(=O)N1CCc2cccc(CS(=O)(=O)Nc3cc(Nc4ccc(cn4)C#C)cs3)c2C1

$$$$

  CDD

  0  0  0  0  0  0            999 V2000
M  END
> <Molecule Name>
CVD-0002995

> <SMILES>
ClCC(=O)N1CCc2cccc(CS(=N)(=O)Cc3cc(Nc4ccc(cn4)C#C)cs3)c2C1

$$$$

  CDD

  0  0  0  0  0  0            999 V2000
M  END
> <Molecule Name>
CVD-0002994

> <SMILES>
ClCC(=O)N1CCc2cccc(CS(=O)(=O)Cc3cc(Nc4ccc(cn4)C#C)cs3)c2C1

$$$$

  CDD

  0  0  0  0  0  0            999 V2000
M  END
> <Molecule Name>
CVD-0002993

> <SMILES>
CCNc1ncc(C#N)c2ccc(cc12)N(C(=O)CCl)c1cccc(c1)C(=O)N1CCSCC1

$$$$

  CDD

  0  0  0  0  0  0            999 V2000
M  END
> <Molecule Name>
CVD-0002992

> <SMILES>
CC(=O)N(CCc1ccc(cc1NC(=O)CCl)C(=O)N1CCSCC1)c1cnccc1C

$$$$

  CDD

  0  0  0  0  0  0            999 V2000
M  END
> <Molecule Name>
CVD-0002991

> <SMILES>
Cc1cccc(c1)C1CN(Cc2ccccc12)C(=O)CCl

$$$$

  CDD

  0  0  0  0  0  0            999 V2000
M  END
> <Molecule Name>
CVD-0002990

> <SMILES>
CC(=O)NCCc1c[nH]c2c(C3CN(Cc4ccccc34)C(=O)CCl)c(F)ccc12

$$$$

  CDD

  0  0  0  0  0  0            999 V2000
M  END
> <Molecule Name>
CVD-0002989

> <SMILES>
ClCC(=O)N1CC(c2cccc(c2)C#N)c2ccccc2C1

$$$$

  CDD

  0  0  0  0  0  0            999 V2000
M  END
> <Molecule Name>
CVD-0002988

> <SMILES>
Nc1cccc(c1)C1CN(Cc2ccccc12)C(=O)CCl

$$$$

  CDD

  0  0  0  0  0  0            999 V2000
M  END
> <Molecule Name>
CVD-0002987

> <SMILES>
NC(=O)C1CC(CC1c1ccsc1)c1ccnc(Cl)c1NC(=O)CCl

$$$$

  CDD

  0  0  0  0  0  0            999 V2000
M  END
> <Molecule Name>
CVD-0002986

> <SMILES>
NC(=O)C1CCCC1c1ccccc1CNC(=O)CCl

$$$$

  CDD

  0  0  0  0  0  0            999 V2000
M  END
> <Molecule Name>
CVD-0002985

> <SMILES>
NC(=O)C1CC2(CC1c1ccsc1)CCCN(C2)C(=O)CCl

$$$$

  CDD

  0  0  0  0  0  0            999 V2000
M  END
> <Molecule Name>
CVD-0002984

> <SMILES>
NC(=O)C1CCC(CC(NC(=O)CCl)c2cccc3ccccc23)C1c1ccsc1

$$$$

  CDD

  0  0  0  0  0  0            999 V2000
M  END
> <Molecule Name>
CVD-0002983

> <SMILES>
Cc1cc(Cl)cc(NC2CCN(CC2)C(=O)CCl)c1

$$$$

  CDD

  0  0  0  0  0  0            999 V2000
M  END
> <Molecule Name>
CVD-0002982

> <SMILES>
Cc1cc(Cl)cc(CC2CCN(CC2)C(=O)CCl)c1

$$$$

  CDD

  0  0  0  0  0  0            999 V2000
M  END
> <Molecule Name>
CVD-0002981

> <SMILES>
CCNc1ncc(cc1NC1CCN(CC1)C(=O)CCl)C#N

$$$$

  CDD

  0  0  0  0  0  0            999 V2000
M  END
> <Molecule Name>
CVD-0002980

> <SMILES>
CCNc1ncc(cc1CC1CCN(CC1)C(=O)CCl)C#N

$$$$

  CDD

  0  0  0  0  0  0            999 V2000
M  END
> <Molecule Name>
CVD-0002979

> <SMILES>
NS(=O)(=O)c1ccc2ccc(NC3CCN(CC3)C(=O)CCl)cc2c1

$$$$

  CDD

  0  0  0  0  0  0            999 V2000
M  END
> <Molecule Name>
CVD-0002978

> <SMILES>
NS(=O)(=O)c1ccc2ccc(CC3CCN(CC3)C(=O)CCl)cc2c1

$$$$

  CDD

  0  0  0  0  0  0            999 V2000
M  END
> <Molecule Name>
CVD-0002977

> <SMILES>
CC(=O)NCCc1c[nH]c2c(NC3CCN(CC3)C(=O)CCl)cc(F)cc12

$$$$

  CDD

  0  0  0  0  0  0            999 V2000
M  END
> <Molecule Name>
CVD-0002976

> <SMILES>
CC(=O)NCCc1c[nH]c2c(CC3CCN(CC3)C(=O)CCl)cc(F)cc12

$$$$

  CDD

  0  0  0  0  0  0            999 V2000
M  END
> <Molecule Name>
CVD-0002975

> <SMILES>
Cc1cccc(c1)N(C1CCN(CC1)C(=O)CCl)c1ccc(N)s1

$$$$

  CDD

  0  0  0  0  0  0            999 V2000
M  END
> <Molecule Name>
CVD-0002974

> <SMILES>
Cc1cccc(c1)N(C1CCN(CC1)C(=O)CCl)c1ccc(Cl)s1

$$$$

  CDD

  0  0  0  0  0  0            999 V2000
M  END
> <Molecule Name>
CVD-0002973

> <SMILES>
Cc1cccc(c1)N(C1CCN(CC1)C(=O)CCl)c1ccc(Br)s1

$$$$

  CDD

  0  0  0  0  0  0            999 V2000
M  END
> <Molecule Name>
CVD-0002972

> <SMILES>
Cc1cccc(NC2CCN(CC2)C(=O)CCl)c1

$$$$

  CDD

  0  0  0  0  0  0            999 V2000
M  END
> <Molecule Name>
CVD-0002971

> <SMILES>
CC(=O)N[C@@H](Cc1ccc(O)cc1)C(=O)NC(CN1CCN(CC1)C(=O)CCl)c1ccccc1

$$$$

  CDD

  0  0  0  0  0  0            999 V2000
M  END
> <Molecule Name>
CVD-0002970

> <SMILES>
CC(=O)N[C@@H](Cc1ccc(O)cc1)C(=O)NC(N1CCN(CC1)C(=O)CCl)c1ccccc1

$$$$

  CDD

  0  0  0  0  0  0            999 V2000
M  END
> <Molecule Name>
CVD-0002969

> <SMILES>
CC(=O)N[C@@H](Cc1ccc(O)cc1)C(=O)NCCN1CCN(CC1)C(=O)CCl

$$$$

  CDD

  0  0  0  0  0  0            999 V2000
M  END
> <Molecule Name>
CVD-0002968

> <SMILES>
CC(=O)N[C@@H](Cc1ccc(O)cc1)C(=O)NCN1CCN(CC1)C(=O)CCl

$$$$

  CDD

  0  0  0  0  0  0            999 V2000
M  END
> <Molecule Name>
CVD-0002967

> <SMILES>
COC(=O)C1[C@@H](O[C@@H](Cc2ccc3ccc(cc3c2)S(N)(=O)=O)CC1=O)c1cccnc1

$$$$

  CDD

  0  0  0  0  0  0            999 V2000
M  END
> <Molecule Name>
CVD-0002966

> <SMILES>
COC(=O)C1[C@@H](O[C@H](Cc2ccc3ccc(cc3c2)S(N)(=O)=O)CC1=O)c1cccnc1

$$$$

  CDD

  0  0  0  0  0  0            999 V2000
M  END
> <Molecule Name>
CVD-0002965

> <SMILES>
COC(=O)C1[C@@H](O[C@@H](Cc2cccc(Cl)c2)CC1=O)c1cccnc1

$$$$

  CDD

  0  0  0  0  0  0            999 V2000
M  END
> <Molecule Name>
CVD-0002964

> <SMILES>
COC(=O)C1[C@@H](O[C@H](Cc2cccc(Cl)c2)CC1=O)c1cccnc1

$$$$

  CDD

  0  0  0  0  0  0            999 V2000
M  END
> <Molecule Name>
CVD-0002963

> <SMILES>
Clc1cccc(Cn2c(OCc3ccc(cc3)C(=O)N3CCOCC3)nc(=O)c3n(-c4cccnc4)c(=O)[nH]c23)c1

$$$$

  CDD

  0  0  0  0  0  0            999 V2000
M  END
> <Molecule Name>
CVD-0002962

> <SMILES>
O=C(N1CCOCC1)c1ccc(COc2nc(=O)c3n(-c4cccnc4)c(=O)[nH]c3n2Cc2ccccc2)cc1

$$$$

  CDD

  0  0  0  0  0  0            999 V2000
M  END
> <Molecule Name>
CVD-0002961

> <SMILES>
O=c1[nH]c2n(Cc3ccccc3)c(=O)[nH]c(=O)c2n1-c1cccnc1

$$$$

  CDD

  0  0  0  0  0  0            999 V2000
M  END
> <Molecule Name>
CVD-0002960

> <SMILES>
ClCC(=O)Nc1nc(=O)n(Cc2ccc(Br)s2)cc1-c1cccnc1

$$$$

  CDD

  0  0  0  0  0  0            999 V2000
M  END
> <Molecule Name>
CVD-0002959

> <SMILES>
ClCC(=O)Nc1nc(=O)n(Cc2ccsc2)cc1-c1cccnc1

$$$$

  CDD

  0  0  0  0  0  0            999 V2000
M  END
> <Molecule Name>
CVD-0002958

> <SMILES>
ClCC(=O)Nc1nc(=O)n(Cc2ccccc2Cl)cc1-c1cccnc1

$$$$

  CDD

  0  0  0  0  0  0            999 V2000
M  END
> <Molecule Name>
CVD-0002957

> <SMILES>
Cc1ccccc1Cn1cc(-c2cccnc2)c(NC(=O)CCl)nc1=O

$$$$

  CDD

  0  0  0  0  0  0            999 V2000
M  END
> <Molecule Name>
CVD-0002956

> <SMILES>
NS(=O)(=O)c1ccc2cccc(Cn3cc(-c4cccnc4)c(NC(=O)CCl)nc3=O)c2c1

$$$$

  CDD

  0  0  0  0  0  0            999 V2000
M  END
> <Molecule Name>
CVD-0002955

> <SMILES>
ClCC(=O)CNc1cncc(CCNC(=O)c2cccc(Cl)c2)c1

$$$$

  CDD

  0  0  0  0  0  0            999 V2000
M  END
> <Molecule Name>
CVD-0002954

> <SMILES>
ClCC(=O)CN(C(=O)Nc1ccccc1)c1cncc(CCNC(=O)c2cccc(Cl)c2)c1

$$$$

  CDD

  0  0  0  0  0  0            999 V2000
M  END
> <Molecule Name>
CVD-0002953

> <SMILES>
NS(=O)(=O)c1cccc(c1)-n1cc(CN2CCN(CC2)C(=O)CCl)nn1

$$$$

  CDD

  0  0  0  0  0  0            999 V2000
M  END
> <Molecule Name>
CVD-0002952

> <SMILES>
ClCC(=O)N(Cc1cnnn1Cc1ccc(Cl)cc1)C1CCS(=O)(=O)C1

$$$$

  CDD

  0  0  0  0  0  0            999 V2000
M  END
> <Molecule Name>
CVD-0002951

> <SMILES>
ClCC(=O)N(Cc1cn(CC(=O)Nc2cccnc2)nn1)C1CCS(=O)(=O)C1

$$$$

  CDD

  0  0  0  0  0  0            999 V2000
M  END
> <Molecule Name>
CVD-0002950

> <SMILES>
Brc1cccc(c1)-c1cnc(OCc2ccc(cc2)C(=O)N2CCOCC2)n(-c2cccnc2)c1=O

$$$$

  CDD

  0  0  0  0  0  0            999 V2000
M  END
> <Molecule Name>
CVD-0002949

> <SMILES>
Brc1cccc(c1)-c1cn(Cc2ccc(cc2)C(=O)N2CCOCC2)c(=O)n(-c2cccnc2)c1=O

$$$$

  CDD

  0  0  0  0  0  0            999 V2000
M  END
> <Molecule Name>
CVD-0002948

> <SMILES>
Brc1cccc(c1)C1=CNC(=C)N(C1=O)c1cccnc1

$$$$

  CDD

  0  0  0  0  0  0            999 V2000
M  END
> <Molecule Name>
CVD-0002947

> <SMILES>
CC(=O)Oc1ccc(cc1)C1CCN(CO1)C(=O)CCl

$$$$

  CDD

  0  0  0  0  0  0            999 V2000
M  END
> <Molecule Name>
CVD-0002946

> <SMILES>
CC(=O)NCc1ccc(cc1)C1CCN(CO1)C(=O)CCl

$$$$

  CDD

  0  0  0  0  0  0            999 V2000
M  END
> <Molecule Name>
CVD-0002945

> <SMILES>
CC(=O)Nc1ccc(cc1)C1CCN(CO1)C(=O)CCl

$$$$

  CDD

  0  0  0  0  0  0            999 V2000
M  END
> <Molecule Name>
CVD-0002944

> <SMILES>
SCc1ccc(cc1)C1CCN(CO1)C(=O)CCl

$$$$

  CDD

  0  0  0  0  0  0            999 V2000
M  END
> <Molecule Name>
CVD-0002943

> <SMILES>
Sc1ccc(cc1)C1CCN(CO1)C(=O)CCl

$$$$

  CDD

  0  0  0  0  0  0            999 V2000
M  END
> <Molecule Name>
CVD-0002942

> <SMILES>
OCc1ccc(cc1)C1CCN(CO1)C(=O)CCl

$$$$

  CDD

  0  0  0  0  0  0            999 V2000
M  END
> <Molecule Name>
CVD-0002941

> <SMILES>
Oc1ccc(cc1)C1CCN(CO1)C(=O)CCl

$$$$

  CDD

  0  0  0  0  0  0            999 V2000
M  END
> <Molecule Name>
CVD-0002940

> <SMILES>
NCc1ccc(cc1)C1CCN(CO1)C(=O)CCl

$$$$

  CDD

  0  0  0  0  0  0            999 V2000
M  END
> <Molecule Name>
CVD-0002939

> <SMILES>
CC(=O)SCc1ccc(cc1)C1CCN(CO1)C(=O)CCl

$$$$

  CDD

  0  0  0  0  0  0            999 V2000
M  END
> <Molecule Name>
CVD-0002938

> <SMILES>
CC(=O)Sc1ccc(cc1)C1CCN(CO1)C(=O)CCl

$$$$

  CDD

  0  0  0  0  0  0            999 V2000
M  END
> <Molecule Name>
CVD-0002937

> <SMILES>
CC(=O)OCc1ccc(cc1)C1CCN(CO1)C(=O)CCl

$$$$

  CDD

  0  0  0  0  0  0            999 V2000
M  END
> <Molecule Name>
CVD-0002936

> <SMILES>
Nc1ccc(cc1)C1CCN(CO1)C(=O)CCl

$$$$

  CDD

  0  0  0  0  0  0            999 V2000
M  END
> <Molecule Name>
CVD-0002935

> <SMILES>
CC(=O)c1ccc(C#N)c2[nH]c(=O)n(-c3cccnc3)c12

$$$$

  CDD

  0  0  0  0  0  0            999 V2000
M  END
> <Molecule Name>
CVD-0002934

> <SMILES>
CC(=O)c1ccc(Cc2ccc(Br)cc2)c2[nH]c(=O)n(-c3cccnc3)c12

$$$$

  CDD

  0  0  0  0  0  0            999 V2000
M  END
> <Molecule Name>
CVD-0002933

> <SMILES>
CC(=O)c1ccc(Br)c2[nH]c(=O)n(-c3cccnc3)c12

$$$$

  CDD

  0  0  0  0  0  0            999 V2000
M  END
> <Molecule Name>
CVD-0002932

> <SMILES>
CC(=O)N1CCN(Cc2ccccc2)C2NC(=O)N(C12)c1cccnc1

$$$$

  CDD

  0  0  0  0  0  0            999 V2000
M  END
> <Molecule Name>
CVD-0002931

> <SMILES>
CC(=O)N1CCNC2NC(=O)N(C12)c1cccnc1

$$$$

  CDD

  0  0  0  0  0  0            999 V2000
M  END
> <Molecule Name>
CVD-0002930

> <SMILES>
NS(=O)(=O)c1ccc2cccc(CN3CCN(C(C3)c3cnccc3CCNC(=O)NC3CCCCC3)C(=O)CCl)c2c1

$$$$

  CDD

  0  0  0  0  0  0            999 V2000
M  END
> <Molecule Name>
CVD-0002929

> <SMILES>
NS(=O)(=O)c1ccc2cccc(CN3CCN(C(C3)c3cccnc3)C(=O)CCl)c2c1

$$$$

  CDD

  0  0  0  0  0  0            999 V2000
M  END
> <Molecule Name>
CVD-0002928

> <SMILES>
ClCC(=O)CC1CNC(=O)N1c1cccnc1

$$$$

  CDD

  0  0  0  0  0  0            999 V2000
M  END
> <Molecule Name>
CVD-0002927

> <SMILES>
ClCC(=O)c1cccc2n(-c3ccccc3)c(=O)n(-c3cccnc3)c12

$$$$

  CDD

  0  0  0  0  0  0            999 V2000
M  END
> <Molecule Name>
CVD-0002926

> <SMILES>
ClCC(=O)c1ccc(C#N)c2[nH]c(=O)n(-c3cccnc3)c12

$$$$

  CDD

  0  0  0  0  0  0            999 V2000
M  END
> <Molecule Name>
CVD-0002925

> <SMILES>
ClCC(=O)c1ccc(Cc2ccc(Br)cc2)c2[nH]c(=O)n(-c3cccnc3)c12

$$$$

  CDD

  0  0  0  0  0  0            999 V2000
M  END
> <Molecule Name>
CVD-0002924

> <SMILES>
ClCC(=O)c1ccc(Br)c2[nH]c(=O)n(-c3cccnc3)c12

$$$$

  CDD

  0  0  0  0  0  0            999 V2000
M  END
> <Molecule Name>
CVD-0002923

> <SMILES>
CC(=O)N1CCN(Cc2cn(nn2)-c2cccc(c2)S(N)(=O)=O)CC1

$$$$

  CDD

  0  0  0  0  0  0            999 V2000
M  END
> <Molecule Name>
CVD-0002922

> <SMILES>
CC(=O)N(Cc1cn(CC(=O)Nc2cccnc2)nn1)C1CCS(=O)(=O)C1

$$$$

  CDD

  0  0  0  0  0  0            999 V2000
M  END
> <Molecule Name>
CVD-0002921

> <SMILES>
CC(=O)N(Cc1cnnn1Cc1ccc(Cl)cc1)C1CCS(=O)(=O)C1

$$$$

  CDD

  0  0  0  0  0  0            999 V2000
M  END
> <Molecule Name>
CVD-0002920

> <SMILES>
CN1CCN(CC1)C(=O)Cc1c[nH]c2ncc(CNC(=O)NC3CCCCC3)cc12

$$$$

  CDD

  0  0  0  0  0  0            999 V2000
M  END
> <Molecule Name>
CVD-0002919

> <SMILES>
CN1CCN(CC1)C(=O)Cc1c[nH]c2ncc(CNC(=O)c3ccccc3)cc12

$$$$

  CDD

  0  0  0  0  0  0            999 V2000
M  END
> <Molecule Name>
CVD-0002918

> <SMILES>
CN(C(=O)NC1CC1)c1ncc2ccc(NC(=O)c3ccccc3)cc2n1

$$$$

  CDD

  0  0  0  0  0  0            999 V2000
M  END
> <Molecule Name>
CVD-0002917

> <SMILES>
O=C(Nc1c[nH]c2ncc(CNC(=O)c3ccccc3)cc12)Nc1ccccc1

$$$$

  CDD

  0  0  0  0  0  0            999 V2000
M  END
> <Molecule Name>
CVD-0002916

> <SMILES>
CN1CCN(C(Cc2ccccc2)C1)C(=O)Cc1c[nH]c2ncccc12

$$$$

  CDD

  0  0  0  0  0  0            999 V2000
M  END
> <Molecule Name>
CVD-0002915

> <SMILES>
CN1CCN(C(C1)C(N)=O)C(=O)Cc1c[nH]c2ncccc12

$$$$

  CDD

  0  0  0  0  0  0            999 V2000
M  END
> <Molecule Name>
CVD-0002914

> <SMILES>
CNC(=O)C1CN(C)CCN1C(=O)Cc1c[nH]c2ncccc12

$$$$

  CDD

  0  0  0  0  0  0            999 V2000
M  END
> <Molecule Name>
CVD-0002913

> <SMILES>
CN1CCN(C(C1)C(O)=O)C(=O)Cc1c[nH]c2ncccc12

$$$$

  CDD

  0  0  0  0  0  0            999 V2000
M  END
> <Molecule Name>
CVD-0002912

> <SMILES>
CN1CCN(C(CO)C1)C(=O)Cc1c[nH]c2ncccc12

$$$$

  CDD

  0  0  0  0  0  0            999 V2000
M  END
> <Molecule Name>
CVD-0002911

> <SMILES>
CN1CCN(C(COC(=O)c2ccccc2)C1)C(=O)Cc1c[nH]c2ncccc12

$$$$

  CDD

  0  0  0  0  0  0            999 V2000
M  END
> <Molecule Name>
CVD-0002910

> <SMILES>
CN1CCN(C(COC(C)=O)C1)C(=O)Cc1c[nH]c2ncccc12

$$$$

  CDD

  0  0  0  0  0  0            999 V2000
M  END
> <Molecule Name>
CVD-0002909

> <SMILES>
CN1CCN(CC1)C(=O)C(CO)c1c[nH]c2ncccc12

$$$$

  CDD

  0  0  0  0  0  0            999 V2000
M  END
> <Molecule Name>
CVD-0002908

> <SMILES>
CCC1CN(C)CCN1C(=O)Cc1c[nH]c2ncccc12

$$$$

  CDD

  0  0  0  0  0  0            999 V2000
M  END
> <Molecule Name>
CVD-0002907

> <SMILES>
CC1CN(C)CCN1C(=O)Cc1c[nH]c2ncccc12

$$$$

  CDD

  0  0  0  0  0  0            999 V2000
M  END
> <Molecule Name>
CVD-0002906

> <SMILES>
CN1CCN(CC1)C(=O)C(COC(=O)c1ccccc1)c1c[nH]c2ncccc12

$$$$

  CDD

  0  0  0  0  0  0            999 V2000
M  END
> <Molecule Name>
CVD-0002905

> <SMILES>
CN1CCN(CC1)C(=O)C(COC(C)=O)c1c[nH]c2ncccc12

$$$$

  CDD

  0  0  0  0  0  0            999 V2000
M  END
> <Molecule Name>
CVD-0002904

> <SMILES>
CNC1CCN(CC1)C(=O)Cc1c[nH]c2ncccc12

$$$$

  CDD

  0  0  0  0  0  0            999 V2000
M  END
> <Molecule Name>
CVD-0002903

> <SMILES>
CN1CCC(CC1)NC(=O)Cc1c[nH]c2ncccc12

$$$$

  CDD

  0  0  0  0  0  0            999 V2000
M  END
> <Molecule Name>
CVD-0002902

> <SMILES>
NC1CCN(CC1)C(=O)Cc1c[nH]c2ncccc12

$$$$

  CDD

  0  0  0  0  0  0            999 V2000
M  END
> <Molecule Name>
CVD-0002901

> <SMILES>
O=C(Cc1c[nH]c2ncccc12)NC1CCNCC1

$$$$

  CDD

  0  0  0  0  0  0            999 V2000
M  END
> <Molecule Name>
CVD-0002900

> <SMILES>
CN1CCN(CC1)C(=O)C1(CCCCC1)c1c[nH]c2ncccc12

$$$$

  CDD

  0  0  0  0  0  0            999 V2000
M  END
> <Molecule Name>
CVD-0002899

> <SMILES>
CN1CCN(CC1)C(=O)C1(CC1)c1c[nH]c2ncccc12

$$$$

  CDD

  0  0  0  0  0  0            999 V2000
M  END
> <Molecule Name>
CVD-0002898

> <SMILES>
CC(C(=O)N1CCN(C)CC1)c1c[nH]c2ncccc12

$$$$

  CDD

  0  0  0  0  0  0            999 V2000
M  END
> <Molecule Name>
CVD-0002897

> <SMILES>
CC(O)CC(=O)NCCCc1ccc(cc1)C#N

$$$$

  CDD

  0  0  0  0  0  0            999 V2000
M  END
> <Molecule Name>
CVD-0002896

> <SMILES>
CC(O)CC(=O)NCCCc1ccc(C)cc1

$$$$

  CDD

  0  0  0  0  0  0            999 V2000
M  END
> <Molecule Name>
CVD-0002895

> <SMILES>
CC(=O)CC(=O)NCCCc1ccc(CO)cc1

$$$$

  CDD

  0  0  0  0  0  0            999 V2000
M  END
> <Molecule Name>
CVD-0002894

> <SMILES>
OCc1ccc(CCCNC(=O)CC(O)=O)cc1

$$$$

  CDD

  0  0  0  0  0  0            999 V2000
M  END
> <Molecule Name>
CVD-0002893

> <SMILES>
OC(O)CC(=O)NCCCc1ccccc1

$$$$

  CDD

  0  0  0  0  0  0            999 V2000
M  END
> <Molecule Name>
CVD-0002892

> <SMILES>
OC(O)CC(=O)NCCCc1ccc(cc1)C#N

$$$$

  CDD

  0  0  0  0  0  0            999 V2000
M  END
> <Molecule Name>
CVD-0002891

> <SMILES>
Cc1ccc(CCCNC(=O)CC(O)O)cc1

$$$$

  CDD

  0  0  0  0  0  0            999 V2000
M  END
> <Molecule Name>
CVD-0002890

> <SMILES>
OCc1ccc(CCCNC(=O)CC(O)O)cc1

$$$$

  CDD

  0  0  0  0  0  0            999 V2000
M  END
> <Molecule Name>
CVD-0002889

> <SMILES>
CS(=O)(=O)Nc1ccc2n(-c3ncc[nH]3)c(=O)n(-c3cncc(N)c3)c(=O)c2c1

$$$$

  CDD

  0  0  0  0  0  0            999 V2000
M  END
> <Molecule Name>
CVD-0002888

> <SMILES>
Oc1ccc(O)c(CN2CCN(CC2)C(=O)CCl)c1

$$$$

  CDD

  0  0  0  0  0  0            999 V2000
M  END
> <Molecule Name>
CVD-0002887

> <SMILES>
O[C@H]1CN(Cc2cc(O)ccc2O)CCN1C(=O)CCl

$$$$

  CDD

  0  0  0  0  0  0            999 V2000
M  END
> <Molecule Name>
CVD-0002886

> <SMILES>
Oc1cc2OCOc2c(CN2CCN(CC2)C(=O)CCl)c1

$$$$

  CDD

  0  0  0  0  0  0            999 V2000
M  END
> <Molecule Name>
CVD-0002885

> <SMILES>
Oc1cccc(c1)[C@H](N1CCN(CC1)C(=O)CCl)c1ccncn1

$$$$

  CDD

  0  0  0  0  0  0            999 V2000
M  END
> <Molecule Name>
CVD-0002884

> <SMILES>
Nc1cc2N(CCN(Cc3cc(O)ccc3O)c2cn1)C(=O)CCl

$$$$

  CDD

  0  0  0  0  0  0            999 V2000
M  END
> <Molecule Name>
CVD-0002883

> <SMILES>
CN1CCCc2ccc(cc12)C1CC(CC(C1)S(N)(O)O)N(CCC1CCON1)C(C)=O

$$$$

  CDD

  0  0  0  0  0  0            999 V2000
M  END
> <Molecule Name>
CVD-0002882

> <SMILES>
Cc1cc(\C=C\C(=O)N2CCN(CC2)S(=O)(=O)c2ccc(Cl)cc2)no1

$$$$

  CDD

  0  0  0  0  0  0            999 V2000
M  END
> <Molecule Name>
CVD-0002881

> <SMILES>
Cc1ccc(NCc2ccccc2)c(c1)S(=O)(=O)N1CCN(CC1)C(=O)CCl

$$$$

  CDD

  0  0  0  0  0  0            999 V2000
M  END
> <Molecule Name>
CVD-0002880

> <SMILES>
CS(=O)(=O)N1CCN(C(C1)c1ccccc1)C(=O)C=C

$$$$

  CDD

  0  0  0  0  0  0            999 V2000
M  END
> <Molecule Name>
CVD-0002879

> <SMILES>
Cc1cccc(Nc2ccc(cc2NS(C)(=O)=O)C(=O)CCl)c1

$$$$

  CDD

  0  0  0  0  0  0            999 V2000
M  END
> <Molecule Name>
CVD-0002878

> <SMILES>
CC(=O)NCCc1c[nH]c2c(CN3CCN(CC3)C(=O)C#N)cc(F)cc12

$$$$

  CDD

  0  0  0  0  0  0            999 V2000
M  END
> <Molecule Name>
CVD-0002877

> <SMILES>
O=C1N(Cc2cn(Cc3ccccc3)nn2)c2ccccc2C11Oc2ccccc2O1

$$$$

  CDD

  0  0  0  0  0  0            999 V2000
M  END
> <Molecule Name>
CVD-0002876

> <SMILES>
OC(=O)c1ccc(Cn2cc(Cn3nc(-c4ccccc4)c4ccccc34)nn2)cc1

$$$$

  CDD

  0  0  0  0  0  0            999 V2000
M  END
> <Molecule Name>
CVD-0002875

> <SMILES>
Oc1ccccc1C1(C(=O)Nc2ccccc12)c1ccccc1

$$$$

  CDD

  0  0  0  0  0  0            999 V2000
M  END
> <Molecule Name>
CVD-0002874

> <SMILES>
O=C1N(CCn2nnnc2S(=O)(=O)Cc2ccccc2)c2ccccc2C1=O

$$$$

  CDD

  0  0  0  0  0  0            999 V2000
M  END
> <Molecule Name>
CVD-0002873

> <SMILES>
CN1CCN(CC1)C(=O)COc1cccc2n(ncc12)-c1ccccc1

$$$$

  CDD

  0  0  0  0  0  0            999 V2000
M  END
> <Molecule Name>
CVD-0002872

> <SMILES>
FC(F)(F)c1cc(cc2C(=O)C(=O)Nc12)-c1ccncc1

$$$$

  CDD

  0  0  0  0  0  0            999 V2000
M  END
> <Molecule Name>
CVD-0002871

> <SMILES>
CC(=O)Nc1ccc2oc(-c3ccccc3)c(O)c(=O)c2c1

$$$$

  CDD

  0  0  0  0  0  0            999 V2000
M  END
> <Molecule Name>
CVD-0002870

> <SMILES>
Nc1ccc(O)c(c1)C(=O)N1CCN(CC1)S(=O)(=O)c1cc(O)c(N)c2ccccc12

$$$$

  CDD

  0  0  0  0  0  0            999 V2000
M  END
> <Molecule Name>
CVD-0002869

> <SMILES>
Nc1ccc(O)c(c1)C(=O)N1CCN(CC1)S(=O)(=O)c1ccc(O)c2ncccc12

$$$$

  CDD

  0  0  0  0  0  0            999 V2000
M  END
> <Molecule Name>
CVD-0002868

> <SMILES>
Oc1ccc(c2cccnc12)S(=O)(=O)N1CCN(CC1)C(=O)c1cc2cc(F)ccc2[nH]1

$$$$

  CDD

  0  0  0  0  0  0            999 V2000
M  END
> <Molecule Name>
CVD-0002867

> <SMILES>
Nc1c(O)cc(c2ccccc12)S(=O)(=O)N1CCN(CC1)C(=O)c1cc2cc(F)ccc2[nH]1

$$$$

  CDD

  0  0  0  0  0  0            999 V2000
M  END
> <Molecule Name>
CVD-0002866

> <SMILES>
NCCC(=O)NCCc1c[nH]c2ccc(F)cc12

$$$$

  CDD

  0  0  0  0  0  0            999 V2000
M  END
> <Molecule Name>
CVD-0002865

> <SMILES>
CC(=O)NCCc1c[nH]c2c(CNC(=O)Cc3c[nH]c4ncccc34)cc(F)cc12

$$$$

  CDD

  0  0  0  0  0  0            999 V2000
M  END
> <Molecule Name>
CVD-0002864

> <SMILES>
CC(=O)NCCc1c[nH]c2c(cc(F)cc12)C(=O)N1CCN(CC1)C(=O)CCl

$$$$

  CDD

  0  0  0  0  0  0            999 V2000
M  END
> <Molecule Name>
CVD-0002863

> <SMILES>
CC(=O)NCCc1c[nH]c2c(OCc3ccccc3)cc(F)cc12

$$$$

  CDD

  0  0  0  0  0  0            999 V2000
M  END
> <Molecule Name>
CVD-0002862

> <SMILES>
CN1CCC[C@H]1C(=O)NCCc1c[nH]c2ccc(F)cc12

$$$$

  CDD

  0  0  0  0  0  0            999 V2000
M  END
> <Molecule Name>
CVD-0002861

> <SMILES>
CC(=O)NCCc1c[nH]c2c(NS(=O)(=O)c3ccccc3)cc(F)cc12

$$$$

  CDD

  0  0  0  0  0  0            999 V2000
M  END
> <Molecule Name>
CVD-0002860

> <SMILES>
Fc1ccc2[nH]cc(CCNC(=O)[C@@H]3CCCN3)c2c1

$$$$

  CDD

  0  0  0  0  0  0            999 V2000
M  END
> <Molecule Name>
CVD-0002859

> <SMILES>
CC(C)[C@H](O)C(=O)NCCc1c[nH]c2ccc(F)cc12

$$$$

  CDD

  0  0  0  0  0  0            999 V2000
M  END
> <Molecule Name>
CVD-0002858

> <SMILES>
Cc1nnc(Cc2nccc3ccc(cc23)S(N)(=O)=O)s1

$$$$

  CDD

  0  0  0  0  0  0            999 V2000
M  END
> <Molecule Name>
CVD-0002857

> <SMILES>
NS(=O)(=O)c1ccc2CCCN(CCC(=O)c3c[nH]c4ncccc34)c2c1

$$$$

  CDD

  0  0  0  0  0  0            999 V2000
M  END
> <Molecule Name>
CVD-0002856

> <SMILES>
Cc1nnc(CN2CCCc3ccc(cc23)S(N)(=O)=O)s1

$$$$

  CDD

  0  0  0  0  0  0            999 V2000
M  END
> <Molecule Name>
CVD-0002855

> <SMILES>
NS(=O)(=O)c1ccc2CCCN(C(=O)N3CCC(O)CC3)c2c1

$$$$

  CDD

  0  0  0  0  0  0            999 V2000
M  END
> <Molecule Name>
CVD-0002854

> <SMILES>
Cc1ccc(OCC(=O)CCN2CCCc3ccc(cc23)S(N)(=O)=O)cc1

$$$$

  CDD

  0  0  0  0  0  0            999 V2000
M  END
> <Molecule Name>
CVD-0002853

> <SMILES>
Cc1ccc(OCC(=O)NCC2NCCc3ccc(cc23)S(N)(=O)=O)cc1

$$$$

  CDD

  0  0  0  0  0  0            999 V2000
M  END
> <Molecule Name>
CVD-0002852

> <SMILES>
CC(=O)NCc1cc2OCOc2cc1CCCCCc1ccncc1NC(C)=O

$$$$

  CDD

  0  0  0  0  0  0            999 V2000
M  END
> <Molecule Name>
CVD-0002851

> <SMILES>
CC(=O)NCc1cc2OCOc2cc1CCCC(=O)Nc1cnccc1C

$$$$

  CDD

  0  0  0  0  0  0            999 V2000
M  END
> <Molecule Name>
CVD-0002850

> <SMILES>
O[C@@H]1CC(=C[C@@H](O)[C@H]1O)C(O)=O

$$$$

  CDD

  0  0  0  0  0  0            999 V2000
M  END
> <Molecule Name>
CVD-0002849

> <SMILES>
Nc1c(Cl)ccnc1Cc1[nH]cnc1-c1cnccc1CO

$$$$

  CDD

  0  0  0  0  0  0            999 V2000
M  END
> <Molecule Name>
CVD-0002848

> <SMILES>
OCc1ccncc1-c1nc[nH]c1Cc1[nH]cnc1CCl

$$$$

  CDD

  0  0  0  0  0  0            999 V2000
M  END
> <Molecule Name>
CVD-0002847

> <SMILES>
Cc1nc(CCl)c(Cc2[nH]cnc2-c2cnccc2CO)[nH]1

$$$$

  CDD

  0  0  0  0  0  0            999 V2000
M  END
> <Molecule Name>
CVD-0002846

> <SMILES>
OCc1ccncc1-c1nc[nH]c1C[C@H](O)CCl

$$$$

  CDD

  0  0  0  0  0  0            999 V2000
M  END
> <Molecule Name>
CVD-0002845

> <SMILES>
OCc1ccncc1-c1nc[nH]c1Cc1cc(Cl)ccn1

$$$$

  CDD

  0  0  0  0  0  0            999 V2000
M  END
> <Molecule Name>
CVD-0002844

> <SMILES>
OCc1ccncc1-c1cc(CCc2cn[nH]c2Cl)ccn1

$$$$

  CDD

  0  0  0  0  0  0            999 V2000
M  END
> <Molecule Name>
CVD-0002843

> <SMILES>
OCc1ccncc1-c1cc(CCc2c(Cl)[nH]cc2C(O)=O)ccn1

$$$$

  CDD

  0  0  0  0  0  0            999 V2000
M  END
> <Molecule Name>
CVD-0002842

> <SMILES>
OCc1ccncc1-c1nc[nH]c1CCl

$$$$

  CDD

  0  0  0  0  0  0            999 V2000
M  END
> <Molecule Name>
CVD-0002841

> <SMILES>
OCc1ccncc1-c1nc[nH]c1Cc1cnc[nH]1

$$$$

  CDD

  0  0  0  0  0  0            999 V2000
M  END
> <Molecule Name>
CVD-0002840

> <SMILES>
C[C@@H](O)Cc1[nH]cnc1-c1cnccc1CO

$$$$

  CDD

  0  0  0  0  0  0            999 V2000
M  END
> <Molecule Name>
CVD-0002839

> <SMILES>
OCc1ccncc1-c1nc[nH]c1CCc1nc[nH]c1Cl

$$$$

  CDD

  0  0  0  0  0  0            999 V2000
M  END
> <Molecule Name>
CVD-0002838

> <SMILES>
OCc1ccncc1-c1nc[nH]c1Cc1ncccc1Cl

$$$$

  CDD

  0  0  0  0  0  0            999 V2000
M  END
> <Molecule Name>
CVD-0002837

> <SMILES>
OCc1ccncc1-c1cc(CCc2c(Cl)[nH]nc2C(O)=O)ccn1

$$$$

  CDD

  0  0  0  0  0  0            999 V2000
M  END
> <Molecule Name>
CVD-0002836

> <SMILES>
CC1COC(CN(C)C1=O)c1ccc(cc1)[S@](C)(=N)=O

$$$$

  CDD

  0  0  0  0  0  0            999 V2000
M  END
> <Molecule Name>
CVD-0002835

> <SMILES>
NC(=O)Cc1ccccc1C1CN(Cc2ccccc12)C(=O)CCl

$$$$

  CDD

  0  0  0  0  0  0            999 V2000
M  END
> <Molecule Name>
CVD-0002834

> <SMILES>
NCc1cccc(c1)N1CN(Cc2ccccc12)C(=O)CCl

$$$$

  CDD

  0  0  0  0  0  0            999 V2000
M  END
> <Molecule Name>
CVD-0002833

> <SMILES>
Cc1cccc(c1)C(N1CCC(O)CC1)N1CCN(CC1)C(=O)CCl

$$$$

  CDD

  0  0  0  0  0  0            999 V2000
M  END
> <Molecule Name>
CVD-0002832

> <SMILES>
Cc1cccc(c1)C(N1CCN(CC1)C(=O)CCl)N1CCCOCC1

$$$$

  CDD

  0  0  0  0  0  0            999 V2000
M  END
> <Molecule Name>
CVD-0002831

> <SMILES>
NS(=O)(=O)CCc1ccccc1CN1CCN(CC1)C(=O)CCl

$$$$

  CDD

  0  0  0  0  0  0            999 V2000
M  END
> <Molecule Name>
CVD-0002830

> <SMILES>
NS(=O)(=O)c1ccc2cccc(CN3CCN(CC3)C(=O)CCl)c2c1

$$$$

  CDD

  0  0  0  0  0  0            999 V2000
M  END
> <Molecule Name>
CVD-0002829

> <SMILES>
ClCC(=O)N1CCN(Cc2cccc3ccccc23)CC1Cc1cccnc1

$$$$

  CDD

  0  0  0  0  0  0            999 V2000
M  END
> <Molecule Name>
CVD-0002828

> <SMILES>
ClCC(=O)N1CCN(Cc2cccc3ccccc23)CC1c1cccnc1

$$$$

  CDD

  0  0  0  0  0  0            999 V2000
M  END
> <Molecule Name>
CVD-0002827

> <SMILES>
CS(=O)(=O)Nc1ccc2CN(CC(c3ccccc3)c2c1)C(=O)CCl

$$$$

  CDD

  0  0  0  0  0  0            999 V2000
M  END
> <Molecule Name>
CVD-0002826

> <SMILES>
ClCC(=O)N1Cc2ccccc2C(C1Cc1cnc-2[nH]cccc1-2)c1ccccc1

$$$$

  CDD

  0  0  0  0  0  0            999 V2000
M  END
> <Molecule Name>
CVD-0002825

> <SMILES>
Cc1ccncc1NC1C(c2ccccc2)c2ccccc2CN1C(=O)CCl

$$$$

  CDD

  0  0  0  0  0  0            999 V2000
M  END
> <Molecule Name>
CVD-0002824

> <SMILES>
NS(=O)(=O)c1ccc2ccc(cc2c1)C1CN(Cc2ccccc12)C(=O)CCl

$$$$

  CDD

  0  0  0  0  0  0            999 V2000
M  END
> <Molecule Name>
CVD-0002823

> <SMILES>
ClCC(=O)N1CC(C2CCCS2)c2ccccc2C1

$$$$

  CDD

  0  0  0  0  0  0            999 V2000
M  END
> <Molecule Name>
CVD-0002822

> <SMILES>
Oc1ccc2C(CN(Cc2c1)C(=O)CCl)c1ccccc1

$$$$

  CDD

  0  0  0  0  0  0            999 V2000
M  END
> <Molecule Name>
CVD-0002821

> <SMILES>
ClCC(=O)N1CCN(Cc2cccc3ccccc23)CC1c1cnc-2[nH]cccc1-2

$$$$

  CDD

  0  0  0  0  0  0            999 V2000
M  END
> <Molecule Name>
CVD-0002820

> <SMILES>
CC(=O)N1CCCN(Cc2ccc3ccc(cc3c2)S(N)(=O)=O)CC1

$$$$

  CDD

  0  0  0  0  0  0            999 V2000
M  END
> <Molecule Name>
CVD-0002819

> <SMILES>
O[C@@H]1C[C@@H](C[C@@H](Nc2cccnc2)O1)c1ccsc1

$$$$

  CDD

  0  0  0  0  0  0            999 V2000
M  END
> <Molecule Name>
CVD-0002818

> <SMILES>
N[C@@H]1C[C@@H](C[C@@H](Cc2cccnc2)O1)c1ccsc1

$$$$

  CDD

  0  0  0  0  0  0            999 V2000
M  END
> <Molecule Name>
CVD-0002817

> <SMILES>
O=S(=O)(NCCc1ccccc1)c1ccoc1

$$$$

  CDD

  0  0  0  0  0  0            999 V2000
M  END
> <Molecule Name>
CVD-0002816

> <SMILES>
Oc1ccc(NCc2cccc(c2)C#N)cc1

$$$$

  CDD

  0  0  0  0  0  0            999 V2000
M  END
> <Molecule Name>
CVD-0002815

> <SMILES>
N[C@@H]1C[C@@H](C[C@@H](Nc2cccnc2)O1)c1ccsc1

$$$$

  CDD

  0  0  0  0  0  0            999 V2000
M  END
> <Molecule Name>
CVD-0002814

> <SMILES>
Cc1ccncc1NC(=O)C[C@H]1CCCc2cc(ccc12)S(N)(=O)=O

$$$$

  CDD

  0  0  0  0  0  0            999 V2000
M  END
> <Molecule Name>
CVD-0002813

> <SMILES>
Cc1ccncc1NC(=O)[C@H](N1CCC(O)CC1)c1ccsc1

$$$$

  CDD

  0  0  0  0  0  0            999 V2000
M  END
> <Molecule Name>
CVD-0002812

> <SMILES>
Cc1ccncc1NC(=O)Cc1ccsc1

$$$$

  CDD

  0  0  0  0  0  0            999 V2000
M  END
> <Molecule Name>
CVD-0002811

> <SMILES>
CS(=O)(=O)NCc1cc2ccc(CS(N)(=O)=O)cc2nc1Cc1cccnc1

$$$$

  CDD

  0  0  0  0  0  0            999 V2000
M  END
> <Molecule Name>
CVD-0002810

> <SMILES>
CS(=O)(=O)NCc1ccc2cc(N3CCN(O)CC3)c(Cc3cccnc3)nc2c1

$$$$

  CDD

  0  0  0  0  0  0            999 V2000
M  END
> <Molecule Name>
CVD-0002809

> <SMILES>
Nc1nc(Cc2cccnc2)c(cc1CCS(N)(=O)=O)N1CCN(O)CC1

$$$$

  CDD

  0  0  0  0  0  0            999 V2000
M  END
> <Molecule Name>
CVD-0002808

> <SMILES>
Nc1nc(CC2=CNC3NC=CC=C23)c(cc1CCS(N)(=O)=O)N1CCN(O)CC1

$$$$

  CDD

  0  0  0  0  0  0            999 V2000
M  END
> <Molecule Name>
CVD-0002807

> <SMILES>
CS(=O)(=O)NCc1ccc(CC2=CNC3NC=CC=C23)nc1N

$$$$

  CDD

  0  0  0  0  0  0            999 V2000
M  END
> <Molecule Name>
CVD-0002806

> <SMILES>
Cc1ccncc1Nc1ccc(CCS(N)(=O)=O)c(N)n1

$$$$

  CDD

  0  0  0  0  0  0            999 V2000
M  END
> <Molecule Name>
CVD-0002805

> <SMILES>
Cc1ccncc1Nc1cc(cc(N)n1)-c1ccccc1CCS(N)(=O)=O

$$$$

  CDD

  0  0  0  0  0  0            999 V2000
M  END
> <Molecule Name>
CVD-0002804

> <SMILES>
Cc1ccncc1Nc1cc(cc(N)n1)-c1ccccc1

$$$$

  CDD

  0  0  0  0  0  0            999 V2000
M  END
> <Molecule Name>
CVD-0002803

> <SMILES>
NC(=O)CC1Cc2ccccc2CC1Nc1cccnc1

$$$$

  CDD

  0  0  0  0  0  0            999 V2000
M  END
> <Molecule Name>
CVD-0002802

> <SMILES>
NC(=O)CCc1ccccc1-c1cc(N)nc(Nc2cccnc2)c1

$$$$

  CDD

  0  0  0  0  0  0            999 V2000
M  END
> <Molecule Name>
CVD-0002801

> <SMILES>
Cc1ccncc1CN1C[C@H](C[C@H](N)O1)c1ccccc1CNS(C)(=O)=O

$$$$

  CDD

  0  0  0  0  0  0            999 V2000
M  END
> <Molecule Name>
CVD-0002800

> <SMILES>
Cc1ccncc1N[C@@H]1C[C@H](C[C@H](N)O1)c1ccccc1

$$$$

  CDD

  0  0  0  0  0  0            999 V2000
M  END
> <Molecule Name>
CVD-0002799

> <SMILES>
Cc1ccncc1Nc1cccc(N)n1

$$$$

  CDD

  0  0  0  0  0  0            999 V2000
M  END
> <Molecule Name>
CVD-0002798

> <SMILES>
O=C(NC1CC1)N(C(=O)c1ccccc1)c1cccnc1

$$$$

  CDD

  0  0  0  0  0  0            999 V2000
M  END
> <Molecule Name>
CVD-0002797

> <SMILES>
O=C(Cc1ccccc1)N(C(=O)NC1CC1)c1cccnc1

$$$$

  CDD

  0  0  0  0  0  0            999 V2000
M  END
> <Molecule Name>
CVD-0002796

> <SMILES>
O=C(NCC1CC1)N(C(=O)c1ccccc1)c1cccnc1

$$$$

  CDD

  0  0  0  0  0  0            999 V2000
M  END
> <Molecule Name>
CVD-0002795

> <SMILES>
O=C(Cc1ccccc1)N(C(=O)NCC1CC1)c1cccnc1

$$$$

  CDD

  0  0  0  0  0  0            999 V2000
M  END
> <Molecule Name>
CVD-0002794

> <SMILES>
O=C(NCC1CC1)N(Cc1cccnc1)C(=O)c1ccccc1

$$$$

  CDD

  0  0  0  0  0  0            999 V2000
M  END
> <Molecule Name>
CVD-0002793

> <SMILES>
O=C(Cc1ccccc1)N(Cc1cccnc1)C(=O)NCC1CC1

$$$$

  CDD

  0  0  0  0  0  0            999 V2000
M  END
> <Molecule Name>
CVD-0002792

> <SMILES>
O=C(NC1CC1)N(Cc1cccnc1)C(=O)c1ccccc1

$$$$

  CDD

  0  0  0  0  0  0            999 V2000
M  END
> <Molecule Name>
CVD-0002791

> <SMILES>
O=C(Cc1ccccc1)N(Cc1cccnc1)C(=O)NC1CC1

$$$$

  CDD

  0  0  0  0  0  0            999 V2000
M  END
> <Molecule Name>
CVD-0002790

> <SMILES>
CC(=O)N1CCCc2cc(NCc3ccc(F)cc3Cl)ccc12

$$$$

  CDD

  0  0  0  0  0  0            999 V2000
M  END
> <Molecule Name>
CVD-0002789

> <SMILES>
CCc1[nH]n(-c2cccc(Cl)c2)c(=O)c1C1=C(N2C=CCC=C2)C(=O)N(C1=O)c1cccc(C)c1

$$$$

  CDD

  0  0  0  0  0  0            999 V2000
M  END
> <Molecule Name>
CVD-0002788

> <SMILES>
O=C(CC1CCCCC1)Nc1cccnc1-c1cc2ccccc2o1

$$$$

  CDD

  0  0  0  0  0  0            999 V2000
M  END
> <Molecule Name>
CVD-0002787

> <SMILES>
O[C@@H](C1CCCCC1)C(=O)Nc1cccnc1

$$$$

  CDD

  0  0  0  0  0  0            999 V2000
M  END
> <Molecule Name>
CVD-0002786

> <SMILES>
CC1(CC(=O)Nc2cccnc2)CCCCC1

$$$$

  CDD

  0  0  0  0  0  0            999 V2000
M  END
> <Molecule Name>
CVD-0002785

> <SMILES>
O[C@@H]1CCCC[C@@H]1CC(=O)Nc1cccnc1

$$$$

  CDD

  0  0  0  0  0  0            999 V2000
M  END
> <Molecule Name>
CVD-0002784

> <SMILES>
C[C@@H]1CCCC[C@@H]1CC(=O)Nc1cccnc1

$$$$

  CDD

  0  0  0  0  0  0            999 V2000
M  END
> <Molecule Name>
CVD-0002783

> <SMILES>
C[C@H]1CC[C@H](CC(=O)Nc2cccnc2)CC1

$$$$

  CDD

  0  0  0  0  0  0            999 V2000
M  END
> <Molecule Name>
CVD-0002782

> <SMILES>
F[C@H]1CC[C@@H](CC(=O)Nc2cccnc2)CC1

$$$$

  CDD

  0  0  0  0  0  0            999 V2000
M  END
> <Molecule Name>
CVD-0002781

> <SMILES>
C[C@@H](C1CCCCC1)C(=O)Nc1cccnc1

$$$$

  CDD

  0  0  0  0  0  0            999 V2000
M  END
> <Molecule Name>
CVD-0002780

> <SMILES>
C[C@]1(CNC(=O)[C@H]2CCC[C@@H](N)C2)C[C@H]1C(=O)N(C(=O)Nc1ccccc1)c1cccnc1

$$$$

  CDD

  0  0  0  0  0  0            999 V2000
M  END
> <Molecule Name>
CVD-0002779

> <SMILES>
N[C@@H]1CCC[C@@H](C1)C(=O)NC[C@@H]1C[C@H]1C(=O)N(C(=O)Nc1cccc(Br)c1)c1cccnc1

$$$$

  CDD

  0  0  0  0  0  0            999 V2000
M  END
> <Molecule Name>
CVD-0002778

> <SMILES>
N[C@@H]1CCC[C@@H](C1)C(=O)NC[C@@H]1C[C@H]1C(=O)N(C(=O)Nc1ccccc1-c1cocn1)c1cccnc1

$$$$

  CDD

  0  0  0  0  0  0            999 V2000
M  END
> <Molecule Name>
CVD-0002777

> <SMILES>
NS(=O)(=O)c1cc(C(=O)N[C@H]2C[C@H]2F)c(Br)c(c1)C(=O)N[C@H]1CC[C@H](CC1)C(O)=O

$$$$

  CDD

  0  0  0  0  0  0            999 V2000
M  END
> <Molecule Name>
CVD-0002776

> <SMILES>
CN(C)C(=O)c1cc(cc(C(=O)N[C@H]2C[C@H]2F)c1Br)S(N)(=O)=O

$$$$

  CDD

  0  0  0  0  0  0            999 V2000
M  END
> <Molecule Name>
CVD-0002775

> <SMILES>
COC(=O)CNC(=O)c1cc(cc(C(=O)N[C@H]2C[C@H]2F)c1Br)S(N)(=O)=O

$$$$

  CDD

  0  0  0  0  0  0            999 V2000
M  END
> <Molecule Name>
CVD-0002774

> <SMILES>
NS(=O)(=O)c1cc(C(=O)NC2CC2)c(Br)c(c1)C(=O)N[C@H]1C[C@H]1F

$$$$

  CDD

  0  0  0  0  0  0            999 V2000
M  END
> <Molecule Name>
CVD-0002773

> <SMILES>
CC(C)CNC(=O)c1cc(cc(C(=O)N[C@H]2C[C@H]2F)c1Br)S(N)(=O)=O

$$$$

  CDD

  0  0  0  0  0  0            999 V2000
M  END
> <Molecule Name>
CVD-0002772

> <SMILES>
CNC(=O)c1cc(cc(C(=O)N[C@H]2C[C@H]2F)c1Br)S(N)(=O)=O

$$$$

  CDD

  0  0  0  0  0  0            999 V2000
M  END
> <Molecule Name>
CVD-0002771

> <SMILES>
NS(=O)(=O)c1cc(C(=O)N[C@H]2C[C@H]2F)c(Br)c(c1)C(=O)N1CC1

$$$$

  CDD

  0  0  0  0  0  0            999 V2000
M  END
> <Molecule Name>
CVD-0002770

> <SMILES>
CCNC(=O)c1cc(cc(C(=O)N[C@H]2C[C@H]2F)c1Br)S(N)(=O)=O

$$$$

  CDD

  0  0  0  0  0  0            999 V2000
M  END
> <Molecule Name>
CVD-0002769

> <SMILES>
NS(=O)(=O)c1cc(C(=O)N[C@H]2C[C@H]2F)c(Br)c(c1)C(=O)NC1CCCCC1

$$$$

  CDD

  0  0  0  0  0  0            999 V2000
M  END
> <Molecule Name>
CVD-0002768

> <SMILES>
CN(C)CCNC(=O)c1cc(cc(C(=O)N[C@H]2C[C@H]2F)c1Br)S(N)(=O)=O

$$$$

  CDD

  0  0  0  0  0  0            999 V2000
M  END
> <Molecule Name>
CVD-0002767

> <SMILES>
NS(=O)(=O)c1cc(C(O)=O)c(Br)c(c1)C(=O)N[C@H]1C[C@H]1F

$$$$

  CDD

  0  0  0  0  0  0            999 V2000
M  END
> <Molecule Name>
CVD-0002766

> <SMILES>
N[C@@H]1CCC[C@@H]([C@@H]1O)C(=O)NC[C@@H]1C[C@H]1C(=O)N(C(=O)Nc1ccccc1)c1cccnc1

$$$$

  CDD

  0  0  0  0  0  0            999 V2000
M  END
> <Molecule Name>
CVD-0002765

> <SMILES>
N[C@@H]1CCC[C@@H](C1)C(=O)NC[C@@H]1C[C@H]1C(=O)N(C(=O)Nc1ccccc1)c1cccnc1

$$$$

  CDD

  0  0  0  0  0  0            999 V2000
M  END
> <Molecule Name>
CVD-0002764

> <SMILES>
NC(=O)[C@H]1C[C@H](O)C[C@H]1c1csc(c1)-c1csc2ccccc12

$$$$

  CDD

  0  0  0  0  0  0            999 V2000
M  END
> <Molecule Name>
CVD-0002763

> <SMILES>
NC(=O)[C@H]1C[C@H](O)C[C@H]1c1ccsc1-c1ccnnc1

$$$$

  CDD

  0  0  0  0  0  0            999 V2000
M  END
> <Molecule Name>
CVD-0002762

> <SMILES>
COCCCO[C@H]1C[C@@H]([C@@H](C1)c1ccsc1)C(N)=O

$$$$

  CDD

  0  0  0  0  0  0            999 V2000
M  END
> <Molecule Name>
CVD-0002761

> <SMILES>
NC(=O)[C@H]1C[C@H](O)C[C@H]1c1ccsc1-c1ccoc1

$$$$

  CDD

  0  0  0  0  0  0            999 V2000
M  END
> <Molecule Name>
CVD-0002760

> <SMILES>
NC(=O)[C@H]1C[C@H](O)C[C@H]1c1csc(c1)-c1ccncn1

$$$$

  CDD

  0  0  0  0  0  0            999 V2000
M  END
> <Molecule Name>
CVD-0002759

> <SMILES>
NC(=O)[C@H]1C[C@H](O)C[C@H]1c1csc(c1)-c1ccncc1

$$$$

  CDD

  0  0  0  0  0  0            999 V2000
M  END
> <Molecule Name>
CVD-0002758

> <SMILES>
NC(=O)[C@H]1C[C@H](O)C[C@H]1c1csc(c1)-c1cccnn1

$$$$

  CDD

  0  0  0  0  0  0            999 V2000
M  END
> <Molecule Name>
CVD-0002757

> <SMILES>
NC(=O)[C@H]1C[C@H](O)C[C@H]1c1csc(c1)-c1cnccn1

$$$$

  CDD

  0  0  0  0  0  0            999 V2000
M  END
> <Molecule Name>
CVD-0002756

> <SMILES>
NC(=O)[C@H]1C[C@H](O)C[C@H]1c1csc(c1)-c1cncc2cc[nH]c12

$$$$

  CDD

  0  0  0  0  0  0            999 V2000
M  END
> <Molecule Name>
CVD-0002755

> <SMILES>
NC(=O)[C@H]1C[C@H](O)C[C@H]1c1csc(c1)-c1cccc2[nH]ccc12

$$$$

  CDD

  0  0  0  0  0  0            999 V2000
M  END
> <Molecule Name>
CVD-0002754

> <SMILES>
NC(=O)[C@H]1C[C@H](O)C[C@H]1c1csc(c1)-c1cc2cc[nH]c2cn1

$$$$

  CDD

  0  0  0  0  0  0            999 V2000
M  END
> <Molecule Name>
CVD-0002753

> <SMILES>
NC(=O)[C@H]1C[C@H](O)C[C@H]1c1csc(c1)-c1cccc2cc[nH]c12

$$$$

  CDD

  0  0  0  0  0  0            999 V2000
M  END
> <Molecule Name>
CVD-0002752

> <SMILES>
NC(=O)[C@H]1C[C@H](O)C[C@H]1c1ccsc1

$$$$

  CDD

  0  0  0  0  0  0            999 V2000
M  END
> <Molecule Name>
CVD-0002751

> <SMILES>
CNC(=O)C(CCN1CCN(CC1)C(=O)CCl)Nc1ccccc1

$$$$

  CDD

  0  0  0  0  0  0            999 V2000
M  END
> <Molecule Name>
CVD-0002750

> <SMILES>
NC(=O)C1CCC(CC(NC(=O)CCl)c2cccc3ccccc23)C1c1ccccc1

$$$$

  CDD

  0  0  0  0  0  0            999 V2000
M  END
> <Molecule Name>
CVD-0002749

> <SMILES>
ClCC(=O)N1CCN(Cc2ncc(Cc3ccccc3)s2)CC1

$$$$

  CDD

  0  0  0  0  0  0            999 V2000
M  END
> <Molecule Name>
CVD-0002748

> <SMILES>
Cc1cccc(c1)[C@@H](N1CCN(CC1)C(=O)CCl)c1cccc(Cl)c1

$$$$

  CDD

  0  0  0  0  0  0            999 V2000
M  END
> <Molecule Name>
CVD-0002747

> <SMILES>
ClCC(=O)N1CCN(CC1)C(c1cccc(Cl)c1)c1cccc(Cl)c1

$$$$

  CDD

  0  0  0  0  0  0            999 V2000
M  END
> <Molecule Name>
CVD-0002746

> <SMILES>
ClCC(=O)N1CCN(CC1)S(=O)(=O)c1ccc(Cc2cccc3ccccc23)cc1

$$$$

  CDD

  0  0  0  0  0  0            999 V2000
M  END
> <Molecule Name>
CVD-0002745

> <SMILES>
Cc1cccc(c1)N(C1CCN(CC1)C(=O)CCl)c1cccc(N)c1

$$$$

  CDD

  0  0  0  0  0  0            999 V2000
M  END
> <Molecule Name>
CVD-0002744

> <SMILES>
CC1CN(CCN1C(F)(F)c1cccc(Cl)c1)C(=O)CCl

$$$$

  CDD

  0  0  0  0  0  0            999 V2000
M  END
> <Molecule Name>
CVD-0002743

> <SMILES>
COCCc1ccc(Cl)cc1CN1CCN(CC1)C(=O)CCl

$$$$

  CDD

  0  0  0  0  0  0            999 V2000
M  END
> <Molecule Name>
CVD-0002742

> <SMILES>
Clc1cccc(c1)[C@@H](C\C=C\C#N)c1cccc(c1)C#N

$$$$

  CDD

  0  0  0  0  0  0            999 V2000
M  END
> <Molecule Name>
CVD-0002741

> <SMILES>
OCCc1cc(CN2CCN(CC2)C(=O)CCl)c(cn1)C#N

$$$$

  CDD

  0  0  0  0  0  0            999 V2000
M  END
> <Molecule Name>
CVD-0002740

> <SMILES>
CCNc1ncc(cc1C(N1CCN(CC1)C(=O)CCl)c1cccc(Cl)c1)C#N

$$$$

  CDD

  0  0  0  0  0  0            999 V2000
M  END
> <Molecule Name>
CVD-0002739

> <SMILES>
COCc1cc(Cl)cc(CN2CCN(CC2)C(=O)CCl)c1

$$$$

  CDD

  0  0  0  0  0  0            999 V2000
M  END
> <Molecule Name>
CVD-0002738

> <SMILES>
Clc1cccc(c1)C1(CCO1)N1CCN(CC1)C(=O)C=C

$$$$

  CDD

  0  0  0  0  0  0            999 V2000
M  END
> <Molecule Name>
CVD-0002737

> <SMILES>
ClCC(=O)N1CCN(Cc2cccc3ccccc23)CC1

$$$$

  CDD

  0  0  0  0  0  0            999 V2000
M  END
> <Molecule Name>
CVD-0002736

> <SMILES>
COc1ccc(cc1OC)C1CC(=NN1C(=O)CCl)c1ccccc1

$$$$

  CDD

  0  0  0  0  0  0            999 V2000
M  END
> <Molecule Name>
CVD-0002735

> <SMILES>
ClCC(=O)Nc1nc(=O)n(Cc2cccc(Cl)c2)cc1-c1cccnc1

$$$$

  CDD

  0  0  0  0  0  0            999 V2000
M  END
> <Molecule Name>
CVD-0002734

> <SMILES>
FC(F)(N1CCN(CC1)C(=O)CCl)c1cccc(Cl)c1

$$$$

  CDD

  0  0  0  0  0  0            999 V2000
M  END
> <Molecule Name>
CVD-0002733

> <SMILES>
ClCC(=O)Nc1nc(=O)n(Cc2ccccc2)cc1-c1cccnc1

$$$$

  CDD

  0  0  0  0  0  0            999 V2000
M  END
> <Molecule Name>
CVD-0002732

> <SMILES>
NC(=O)C1CC2(CC1c1ccccc1)CCCN(C2)C(=O)CCl

$$$$

  CDD

  0  0  0  0  0  0            999 V2000
M  END
> <Molecule Name>
CVD-0002731

> <SMILES>
O[C@@H](CN(Cc1ccccc1)C(=O)CNC(=O)C=C)c1ccccc1

$$$$

  CDD

  0  0  0  0  0  0            999 V2000
M  END
> <Molecule Name>
CVD-0002730

> <SMILES>
ClCC(=O)N1CCN(Cc2cnc(Cc3ccccc3)s2)CC1

$$$$

  CDD

  0  0  0  0  0  0            999 V2000
M  END
> <Molecule Name>
CVD-0002729

> <SMILES>
CCNc1cccc(C#N)c1CN1CCN(CC1)C(=O)CCl

$$$$

  CDD

  0  0  0  0  0  0            999 V2000
M  END
> <Molecule Name>
CVD-0002728

> <SMILES>
Cc1ccc(cc1)C(N1CCN(CC1)C(=O)CCl)c1cccc(C)c1

$$$$

  CDD

  0  0  0  0  0  0            999 V2000
M  END
> <Molecule Name>
CVD-0002727

> <SMILES>
Clc1ccccc1CN(CCN1CCOCC1)C(=O)CNC(=O)C=C

$$$$

  CDD

  0  0  0  0  0  0            999 V2000
M  END
> <Molecule Name>
CVD-0002726

> <SMILES>
CC(=O)NCCc1c[nH]c2c(cccc12)C(N1CCN(CC1)C(=O)CCl)c1ccccc1

$$$$

  CDD

  0  0  0  0  0  0            999 V2000
M  END
> <Molecule Name>
CVD-0002725

> <SMILES>
NC(=O)C1CC(CC1c1ccccc1)c1ccnc(Cl)c1NC(=O)CCl

$$$$

  CDD

  0  0  0  0  0  0            999 V2000
M  END
> <Molecule Name>
CVD-0002724

> <SMILES>
Oc1ccc(C[C@H]2CN(Cc3cccc(Cl)c3)CCN2C(=O)CCl)cc1

$$$$

  CDD

  0  0  0  0  0  0            999 V2000
M  END
> <Molecule Name>
CVD-0002723

> <SMILES>
Nc1nc(CN2CCN(CC2)C(=O)CCl)ncc1Cc1ccccc1

$$$$

  CDD

  0  0  0  0  0  0            999 V2000
M  END
> <Molecule Name>
CVD-0002722

> <SMILES>
ClCC(=O)N1CCN(CC1)[C@H](c1ccc(Cl)cc1)c1cccc(Cl)c1

$$$$

  CDD

  0  0  0  0  0  0            999 V2000
M  END
> <Molecule Name>
CVD-0002721

> <SMILES>
ClCC(=O)N1CCC(CC1)C(=O)Nc1ccccc1OC1CCN(Cc2ccccc2)CC1

$$$$

  CDD

  0  0  0  0  0  0            999 V2000
M  END
> <Molecule Name>
CVD-0002720

> <SMILES>
ClCC(=O)N1CCN(Cc2cccc(Cl)c2)CC1

$$$$

  CDD

  0  0  0  0  0  0            999 V2000
M  END
> <Molecule Name>
CVD-0002719

> <SMILES>
Clc1cccc(c1)C(=O)N1CCN(CC1)C(=O)C=C

$$$$

  CDD

  0  0  0  0  0  0            999 V2000
M  END
> <Molecule Name>
CVD-0002718

> <SMILES>
CC1CN(Cc2cccc(Cl)c2)CCN1C(=O)CCl

$$$$

  CDD

  0  0  0  0  0  0            999 V2000
M  END
> <Molecule Name>
CVD-0002717

> <SMILES>
ClCC(=O)N1CCN(CC1)C1(CC1)c1cccc(Cl)c1

$$$$

  CDD

  0  0  0  0  0  0            999 V2000
M  END
> <Molecule Name>
CVD-0002716

> <SMILES>
ClCC(=O)N1CCN(CC1)C1(CCO1)c1cccc(Cl)c1

$$$$

  CDD

  0  0  0  0  0  0            999 V2000
M  END
> <Molecule Name>
CVD-0002715

> <SMILES>
ClCC(=O)Nc1cccc(c1)-c1ccc2CCCCc2c1

$$$$

  CDD

  0  0  0  0  0  0            999 V2000
M  END
> <Molecule Name>
CVD-0002714

> <SMILES>
ClCC(=O)N1CCN(Cc2cccc(NC(=O)c3cnc(Cc4ccccc4)s3)c2)CC1

$$$$

  CDD

  0  0  0  0  0  0            999 V2000
M  END
> <Molecule Name>
CVD-0002713

> <SMILES>
CC[C@H](NC(=O)[C@H](CS(=O)(=O)CC1CC1)N[C@@H](c1ccc(F)cc1)C(F)(F)F)C(=O)C(=O)NC1CC1

$$$$

  CDD

  0  0  0  0  0  0            999 V2000
M  END
> <Molecule Name>
CVD-0002712

> <SMILES>
CC(C)C[C@H](NC(=O)OCc1ccccc1)C(=O)N[C@@H](C(C)C)C(=O)NCC(=O)C=[N+]=[N-]

$$$$

  CDD

  0  0  0  0  0  0            999 V2000
M  END
> <Molecule Name>
CVD-0002711

> <SMILES>
CC(C)[C@H](NC(=O)OCc1ccccc1)C(=O)NC(Cc1ccccc1)C=O

$$$$

  CDD

  0  0  0  0  0  0            999 V2000
M  END
> <Molecule Name>
CVD-0002710

> <SMILES>
C[C@@H]1CS\C(=N/NC(=O)C(=O)[C@@H](NC(=O)C2CCCCCC2)C2CCOCC2)N1C

$$$$

  CDD

  0  0  0  0  0  0            999 V2000
M  END
> <Molecule Name>
CVD-0002709

> <SMILES>
O=C(N1CCN(CC1)c1ccccc1)c1cc(=O)[nH]c2ccccc12

$$$$

  CDD

  0  0  0  0  0  0            999 V2000
M  END
> <Molecule Name>
CVD-0002708

> <SMILES>
Cc1cc(C)c(C)c(c1C)S(=O)(=O)N1CCN(CC1)C(=O)c1cc(=O)[nH]c2ccccc12

$$$$

  CDD

  0  0  0  0  0  0            999 V2000
M  END
> <Molecule Name>
CVD-0002707

> <SMILES>
COc1ccccc1OCCNC(=O)c1cc(=O)[nH]c2ccccc12

$$$$

  CDD

  0  0  0  0  0  0            999 V2000
M  END
> <Molecule Name>
CVD-0002706

> <SMILES>
COc1ccc(cc1OC)C1CC(=NN1C(=O)CCl)c1cccs1

$$$$

  CDD

  0  0  0  0  0  0            999 V2000
M  END
> <Molecule Name>
CVD-0002705

> <SMILES>
CC(=O)NCCc1c[nH]c2c(cc(C#N)c(Cl)c12)-c1ncoc1CC#Cc1cccnc1

$$$$

  CDD

  0  0  0  0  0  0            999 V2000
M  END
> <Molecule Name>
CVD-0002704

> <SMILES>
CC(=O)NCCc1c[nH]c2c(cc(C#N)c(Cl)c12)-c1ncoc1C

$$$$

  CDD

  0  0  0  0  0  0            999 V2000
M  END
> <Molecule Name>
CVD-0002703

> <SMILES>
CC(=O)NCCc1c[nH]c2ccc(C#N)c(Cl)c12

$$$$

  CDD

  0  0  0  0  0  0            999 V2000
M  END
> <Molecule Name>
CVD-0002702

> <SMILES>
CC1CNCC1CN(CC(=O)N1CCN(C)CC1)C(O)N1CCN(CC1)C1CCCCC1N([O])O

$$$$

  CDD

  0  0  0  0  0  0            999 V2000
M  END
> <Molecule Name>
CVD-0002701

> <SMILES>
CN(CC1C=NC=C1C)C(=O)N1CCN(CC1)c1ccccc1N(O)O

$$$$

  CDD

  0  0  0  0  0  0            999 V2000
M  END
> <Molecule Name>
CVD-0002700

> <SMILES>
CN1CCN(CC1)C(=O)CN(CC1C=NC=C1C)C(O)N1CCN(CC1)c1ccccc1N([O])O

$$$$

  CDD

  0  0  0  0  0  0            999 V2000
M  END
> <Molecule Name>
CVD-0002699

> <SMILES>
C[C@@H](O)C(NC(C)=O)C(=O)NC(NCN(CC1C=C(C)C=N1)C(=O)Nc1ccccc1)C#CBr

$$$$

  CDD

  0  0  0  0  0  0            999 V2000
M  END
> <Molecule Name>
CVD-0002698

> <SMILES>
C[C@@H](O)C(NC(C)=O)C(=O)NC(NC(=O)N(CC1C=C(C)C=N1)C(=O)Nc1ccccc1)C#CBr

$$$$

  CDD

  0  0  0  0  0  0            999 V2000
M  END
> <Molecule Name>
CVD-0002697

> <SMILES>
O=C(NCc1ncco1)c1ccccc1OCCC1CCCC(=O)N1

$$$$

  CDD

  0  0  0  0  0  0            999 V2000
M  END
> <Molecule Name>
CVD-0002696

> <SMILES>
Nc1ncc(cc1CN1CCC(O)CC1)C#N

$$$$

  CDD

  0  0  0  0  0  0            999 V2000
M  END
> <Molecule Name>
CVD-0002695

> <SMILES>
Cc1cnc(N)c(CN2CCC(O)CC2)c1

$$$$

  CDD

  0  0  0  0  0  0            999 V2000
M  END
> <Molecule Name>
CVD-0002694

> <SMILES>
Cc1cnc(N)c(CNS(=O)(=O)C(F)(F)F)c1

$$$$

  CDD

  0  0  0  0  0  0            999 V2000
M  END
> <Molecule Name>
CVD-0002693

> <SMILES>
CNc1ncc(C)cc1CNS(C)(=O)=O

$$$$

  CDD

  0  0  0  0  0  0            999 V2000
M  END
> <Molecule Name>
CVD-0002692

> <SMILES>
CS(=O)(=O)NCc1cc(cnc1N)C#N

$$$$

  CDD

  0  0  0  0  0  0            999 V2000
M  END
> <Molecule Name>
CVD-0002691

> <SMILES>
Cc1cnc(N)c(CNS(C)(=O)=O)c1

$$$$

  CDD

  0  0  0  0  0  0            999 V2000
M  END
> <Molecule Name>
CVD-0002690

> <SMILES>
COc1ccc2[nH]cc(CCNS(C)(=O)=O)c2c1

$$$$

  CDD

  0  0  0  0  0  0            999 V2000
M  END
> <Molecule Name>
CVD-0002689

> <SMILES>
O=C(NC(Cc1ccccc1)C(=O)C(=O)NCc1ccccc1)C1CCCN1Cc1ccccc1

$$$$

  CDD

  0  0  0  0  0  0            999 V2000
M  END
> <Molecule Name>
CVD-0002688

> <SMILES>
O=C(NC(Cc1ccccc1)C(=O)C(=O)NCc1ccccn1)C1CCCN1Cc1ccccn1

$$$$

  CDD

  0  0  0  0  0  0            999 V2000
M  END
> <Molecule Name>
CVD-0002687

> <SMILES>
O=C(NC(Cc1ccccc1)C(=O)C(=O)NCc1ccccn1)C1CCCN1c1ccsc1

$$$$

  CDD

  0  0  0  0  0  0            999 V2000
M  END
> <Molecule Name>
CVD-0002686

> <SMILES>
Cn1ccc(n1)C(=O)NC(Cc1ccccc1)C(=O)C(=O)NCc1ccccn1

$$$$

  CDD

  0  0  0  0  0  0            999 V2000
M  END
> <Molecule Name>
CVD-0002685

> <SMILES>
CN1CCN(CC1)C(=O)C(=O)C(Cc1ccccc1)NC(=O)c1ccn(C)n1

$$$$

  CDD

  0  0  0  0  0  0            999 V2000
M  END
> <Molecule Name>
CVD-0002684

> <SMILES>
CN(C)C(Cc1ccccc1)C(=O)NC(Cc1ccccc1)C(=O)C(=O)N1CCN(C)CC1

$$$$

  CDD

  0  0  0  0  0  0            999 V2000
M  END
> <Molecule Name>
CVD-0002683

> <SMILES>
CN(C)C(Cc1ccccc1)C(=O)NC(Cc1ccccc1)C(=O)C(=O)N1CCN(CC1)c1ccccc1

$$$$

  CDD

  0  0  0  0  0  0            999 V2000
M  END
> <Molecule Name>
CVD-0002682

> <SMILES>
O=C(NC(Cc1ccccc1)C(=O)C(=O)N1CCN(CC1)c1ccccc1)C1CCCN1

$$$$

  CDD

  0  0  0  0  0  0            999 V2000
M  END
> <Molecule Name>
CVD-0002681

> <SMILES>
O=C(NC(Cc1ccccc1)C(=O)C(=O)NCc1ccccc1)C(Cc1ccccc1)n1ccccc1=O

$$$$

  CDD

  0  0  0  0  0  0            999 V2000
M  END
> <Molecule Name>
CVD-0002680

> <SMILES>
NC(=O)C(=O)C(Cc1ccccc1)NC(=O)C(Cc1ccccc1)n1ccccc1=O

$$$$

  CDD

  0  0  0  0  0  0            999 V2000
M  END
> <Molecule Name>
CVD-0002679

> <SMILES>
NC(=O)C(=O)C(Cc1ccccc1)NC(=O)C1CCCN1Cc1ccccc1

$$$$

  CDD

  0  0  0  0  0  0            999 V2000
M  END
> <Molecule Name>
CVD-0002678

> <SMILES>
COC(=O)N1CCCC1C(=O)NC(Cc1ccccc1)C(=O)C(=O)N1CCN(CC1)c1ccccc1

$$$$

  CDD

  0  0  0  0  0  0            999 V2000
M  END
> <Molecule Name>
CVD-0002677

> <SMILES>
CS(O)(O)CCN(Cc1cccc2ccc(CN)cc12)C(O)Cc1cnccc1N

$$$$

  CDD

  0  0  0  0  0  0            999 V2000
M  END
> <Molecule Name>
CVD-0002676

> <SMILES>
CS(=O)(=O)CCN(Cc1cccc2ccc(CN)cc12)C(=O)Cc1cnccc1N

$$$$

  CDD

  0  0  0  0  0  0            999 V2000
M  END
> <Molecule Name>
CVD-0002675

> <SMILES>
CCC(C)Oc1nc(nn2c(Cl)ccc12)C(N)=O

$$$$

  CDD

  0  0  0  0  0  0            999 V2000
M  END
> <Molecule Name>
CVD-0002674

> <SMILES>
CCOC(=O)c1nc(NC(C)=O)c2ccc(F)n2n1

$$$$

  CDD

  0  0  0  0  0  0            999 V2000
M  END
> <Molecule Name>
CVD-0002673

> <SMILES>
CCOC(=O)c1nc(N(C)C)c2ccc(F)n2n1

$$$$

  CDD

  0  0  0  0  0  0            999 V2000
M  END
> <Molecule Name>
CVD-0002672

> <SMILES>
CN(CCO)CCCCNc1ncnn2c(F)ccc12

$$$$

  CDD

  0  0  0  0  0  0            999 V2000
M  END
> <Molecule Name>
CVD-0002671

> <SMILES>
NC(=O)c1nc(O)c2ccc(F)n2n1

$$$$

  CDD

  0  0  0  0  0  0            999 V2000
M  END
> <Molecule Name>
CVD-0002670

> <SMILES>
CCC(C)Oc1nc(nn2c(F)ccc12)C(N)=O

$$$$

  CDD

  0  0  0  0  0  0            999 V2000
M  END
> <Molecule Name>
CVD-0002669

> <SMILES>
CCOC(=O)c1nc(NC(C)=O)c2ccc(Br)n2n1

$$$$

  CDD

  0  0  0  0  0  0            999 V2000
M  END
> <Molecule Name>
CVD-0002668

> <SMILES>
CCOC(=O)c1nc(N(C)C)c2ccc(Br)n2n1

$$$$

  CDD

  0  0  0  0  0  0            999 V2000
M  END
> <Molecule Name>
CVD-0002667

> <SMILES>
NC(=O)c1nc(O)c2ccc(Cl)n2n1

$$$$

  CDD

  0  0  0  0  0  0            999 V2000
M  END
> <Molecule Name>
CVD-0002666

> <SMILES>
CC(CCCN(C)CCO)Nc1ncnn2c(Br)ccc12

$$$$

  CDD

  0  0  0  0  0  0            999 V2000
M  END
> <Molecule Name>
CVD-0002665

> <SMILES>
O=C(NCCNc1cncnc1)C1CCCCC1

$$$$

  CDD

  0  0  0  0  0  0            999 V2000
M  END
> <Molecule Name>
CVD-0002664

> <SMILES>
CC1=C(N(Cc2cncnc2NC2CCCCC2)\C(S1)=C/O)c1cncnc1

$$$$

  CDD

  0  0  0  0  0  0            999 V2000
M  END
> <Molecule Name>
CVD-0002663

> <SMILES>
O=C(NC1CCCCC1)Nc1nc2ccccc2n1Cc1cncnc1

$$$$

  CDD

  0  0  0  0  0  0            999 V2000
M  END
> <Molecule Name>
CVD-0002662

> <SMILES>
O=C(NC1CCCCC1)Nc1c(Cc2cncnc2)nc2cnccn12

$$$$

  CDD

  0  0  0  0  0  0            999 V2000
M  END
> <Molecule Name>
CVD-0002661

> <SMILES>
Clc1ccc2c(-c3cncn3Cc3cncnc3)c([nH]c2c1)C(=O)NC(=O)NC1CCCCC1

$$$$

  CDD

  0  0  0  0  0  0            999 V2000
M  END
> <Molecule Name>
CVD-0002660

> <SMILES>
OC1C(CCNC(=O)NC2CCCCC2)OCC(C1O)c1cncnc1

$$$$

  CDD

  0  0  0  0  0  0            999 V2000
M  END
> <Molecule Name>
CVD-0002659

> <SMILES>
CC1C(CCC(NC(C)=O)C1CCNC(=O)NC1CCCCC1)Oc1cncnc1

$$$$

  CDD

  0  0  0  0  0  0            999 V2000
M  END
> <Molecule Name>
CVD-0002658

> <SMILES>
CC(=O)Nc1cnccc1Cc1ccc(CCNC(=O)NC2CCCCC2)c(c1)-c1ccccc1Cl

$$$$

  CDD

  0  0  0  0  0  0            999 V2000
M  END
> <Molecule Name>
CVD-0002657

> <SMILES>
CC(=O)Nc1cnccc1Cc1ccc(CCNC(=O)NC2CCCCC2)c(NC(=O)CCc2ccccc2)c1

$$$$

  CDD

  0  0  0  0  0  0            999 V2000
M  END
> <Molecule Name>
CVD-0002656

> <SMILES>
CC(=O)Nc1cnccc1CN1CC(CNC(=O)NC2CCCCC2)C(=O)C1

$$$$

  CDD

  0  0  0  0  0  0            999 V2000
M  END
> <Molecule Name>
CVD-0002655

> <SMILES>
CC(=O)Nc1cnccc1CNC(=O)C(N)CNC(=O)NC1CCCCC1

$$$$

  CDD

  0  0  0  0  0  0            999 V2000
M  END
> <Molecule Name>
CVD-0002654

> <SMILES>
CC(=O)Nc1cnccc1COC1CCCCC1CNC(=O)NC1CCCCC1

$$$$

  CDD

  0  0  0  0  0  0            999 V2000
M  END
> <Molecule Name>
CVD-0002653

> <SMILES>
CC(=O)NC(NC(=O)NC1CCCCC1)C(=O)NCc1ccncc1NC(C)=O

$$$$

  CDD

  0  0  0  0  0  0            999 V2000
M  END
> <Molecule Name>
CVD-0002652

> <SMILES>
CC(=O)Nc1cnccc1COCC(NC(=O)CN)C(=O)C(=O)NC1CCCCC1

$$$$

  CDD

  0  0  0  0  0  0            999 V2000
M  END
> <Molecule Name>
CVD-0002651

> <SMILES>
CN(CCCNC(=O)NC1CCCCC1)Cc1cncnc1

$$$$

  CDD

  0  0  0  0  0  0            999 V2000
M  END
> <Molecule Name>
CVD-0002650

> <SMILES>
CC(=O)Nc1cnccc1CCCN\C(SC1OCC(O)C1O)=N/C1CCCCC1

$$$$

  CDD

  0  0  0  0  0  0            999 V2000
M  END
> <Molecule Name>
CVD-0002649

> <SMILES>
CC(=O)Nc1cnccc1CC1CCCN(C1)C(=O)NC1CCCCC1

$$$$

  CDD

  0  0  0  0  0  0            999 V2000
M  END
> <Molecule Name>
CVD-0002648

> <SMILES>
CC(=O)Nc1cnccc1CCC\C=C(/C)NC1CCCCC1

$$$$

  CDD

  0  0  0  0  0  0            999 V2000
M  END
> <Molecule Name>
CVD-0002647

> <SMILES>
CC(=O)Nc1cnccc1CCC\C=C\NC1CCCCC1

$$$$

  CDD

  0  0  0  0  0  0            999 V2000
M  END
> <Molecule Name>
CVD-0002646

> <SMILES>
CC(=O)Nc1cnccc1CCC1NCc2cn(nc12)C1CCCCC1

$$$$

  CDD

  0  0  0  0  0  0            999 V2000
M  END
> <Molecule Name>
CVD-0002645

> <SMILES>
CC(=O)Nc1cnccc1CCCn1cc(nn1)C1CCCCC1

$$$$

  CDD

  0  0  0  0  0  0            999 V2000
M  END
> <Molecule Name>
CVD-0002644

> <SMILES>
CC(Cc1ccncc1NC(C)=O)Cn1cc(nn1)C1CCCCC1

$$$$

  CDD

  0  0  0  0  0  0            999 V2000
M  END
> <Molecule Name>
CVD-0002643

> <SMILES>
CC(=O)Nc1cnccc1NC1CCC(CC1)C1CCCCC1

$$$$

  CDD

  0  0  0  0  0  0            999 V2000
M  END
> <Molecule Name>
CVD-0002642

> <SMILES>
CC(=O)Nc1cnccc1CC(COC=O)OC(=O)NC1CCCCC1

$$$$

  CDD

  0  0  0  0  0  0            999 V2000
M  END
> <Molecule Name>
CVD-0002641

> <SMILES>
CC(=O)Nc1cnccc1NCC(=O)C(=O)NC1CCCCC1

$$$$

  CDD

  0  0  0  0  0  0            999 V2000
M  END
> <Molecule Name>
CVD-0002640

> <SMILES>
CC(=O)Nc1cnccc1CCC\N=C(/N)NC1CCCCC1

$$$$

  CDD

  0  0  0  0  0  0            999 V2000
M  END
> <Molecule Name>
CVD-0002639

> <SMILES>
CC(=O)Nc1cnccc1NC(NC(=O)NC1CCCCC1)C=O

$$$$

  CDD

  0  0  0  0  0  0            999 V2000
M  END
> <Molecule Name>
CVD-0002638

> <SMILES>
CC(NCNC(=O)NC1CCCCC1)c1ccncc1NC(C)=O

$$$$

  CDD

  0  0  0  0  0  0            999 V2000
M  END
> <Molecule Name>
CVD-0002637

> <SMILES>
CCN\C=C1/C(CCNC(=O)NC2CCCCC2)=CN=C(C1=O)c1ccncc1NC(C)=O

$$$$

  CDD

  0  0  0  0  0  0            999 V2000
M  END
> <Molecule Name>
CVD-0002636

> <SMILES>
CC(=O)Nc1cnccc1Oc1ccccc1NCCNC(=O)NC1CCCCC1

$$$$

  CDD

  0  0  0  0  0  0            999 V2000
M  END
> <Molecule Name>
CVD-0002635

> <SMILES>
CC(=O)Nc1cnccc1CCCCNC(=O)NC1CCCCC1

$$$$

  CDD

  0  0  0  0  0  0            999 V2000
M  END
> <Molecule Name>
CVD-0002634

> <SMILES>
CC(CNC(=O)NC1CCCCC1)NC(=O)CCNc1cncnc1

$$$$

  CDD

  0  0  0  0  0  0            999 V2000
M  END
> <Molecule Name>
CVD-0002633

> <SMILES>
C\C(NC1CCCCC1)=C\CCNc1cncnc1

$$$$

  CDD

  0  0  0  0  0  0            999 V2000
M  END
> <Molecule Name>
CVD-0002632

> <SMILES>
CC1OC(C(Nc2cncnc2)C1O)n1c(NC2CCCCC2)ccnc1=O

$$$$

  CDD

  0  0  0  0  0  0            999 V2000
M  END
> <Molecule Name>
CVD-0002631

> <SMILES>
OC1COC(C1Nc1cncnc1)n1c(NC2CCCCC2)cc(=O)[nH]c1=O

$$$$

  CDD

  0  0  0  0  0  0            999 V2000
M  END
> <Molecule Name>
CVD-0002630

> <SMILES>
O=C(CCNCNc1cncnc1)C1CCCCC1

$$$$

  CDD

  0  0  0  0  0  0            999 V2000
M  END
> <Molecule Name>
CVD-0002629

> <SMILES>
CC(=O)Nc1cnccc1CCC\N=C\NC1CCCCC1

$$$$

  CDD

  0  0  0  0  0  0            999 V2000
M  END
> <Molecule Name>
CVD-0002628

> <SMILES>
CS(=O)(=O)NCC(Nc1ccc(O)cc1Oc1cccnc1)c1ccccc1

$$$$

  CDD

  0  0  0  0  0  0            999 V2000
M  END
> <Molecule Name>
CVD-0002627

> <SMILES>
CS(=O)(=O)NCC(C1CCC(CC1)c1cccnc1)c1ccccc1

$$$$

  CDD

  0  0  0  0  0  0            999 V2000
M  END
> <Molecule Name>
CVD-0002626

> <SMILES>
CS(=O)(=O)c1ccc(cn1)N(C(=O)Nc1cccnc1)c1ccccc1

$$$$

  CDD

  0  0  0  0  0  0            999 V2000
M  END
> <Molecule Name>
CVD-0002625

> <SMILES>
Cc1cccc(CCCN2CCC(O)CC2)c1

$$$$

  CDD

  0  0  0  0  0  0            999 V2000
M  END
> <Molecule Name>
CVD-0002624

> <SMILES>
ClCC(=O)N1CCN(Cc2cccc(NC(=O)c3cnc(Cc4ccsc4)s3)c2)CC1

$$$$

  CDD

  0  0  0  0  0  0            999 V2000
M  END
> <Molecule Name>
CVD-0002623

> <SMILES>
OC1CCN(CC(=O)CSCc2cccc(CN3CCN(CC3)C(=O)CCl)c2)CC1

$$$$

  CDD

  0  0  0  0  0  0            999 V2000
M  END
> <Molecule Name>
CVD-0002622

> <SMILES>
Cc1cccc(c1)-c1cc(CN2CCC(O)CC2)nn1C

$$$$

  CDD

  0  0  0  0  0  0            999 V2000
M  END
> <Molecule Name>
CVD-0002621

> <SMILES>
CN(C)c1ncc2cc(Oc3cccc(C)c3)c(OCN3CCC(O)CC3)cc2n1

$$$$

  CDD

  0  0  0  0  0  0            999 V2000
M  END
> <Molecule Name>
CVD-0002620

> <SMILES>
Cc1cccc(c1)-c1cc(CN2CCC(O)CC2)nn1Cc1ccccc1

$$$$

  CDD

  0  0  0  0  0  0            999 V2000
M  END
> <Molecule Name>
CVD-0002619

> <SMILES>
Cc1ccc(cc1)-c1c(CN2CCC(O)CC2)cnn1-c1cccc(C)c1

$$$$

  CDD

  0  0  0  0  0  0            999 V2000
M  END
> <Molecule Name>
CVD-0002618

> <SMILES>
Cc1nc(CN2CCN(CC2)C(=O)CCl)c(NCc2cccc(O)c2)c(=O)[nH]1

$$$$

  CDD

  0  0  0  0  0  0            999 V2000
M  END
> <Molecule Name>
CVD-0002617

> <SMILES>
Cc1cccc(CN2CCN(CC2)C(=O)CCl)c1C(=O)N1CCC(O)CC1

$$$$

  CDD

  0  0  0  0  0  0            999 V2000
M  END
> <Molecule Name>
CVD-0002616

> <SMILES>
Cc1nc(CN2CCN(CC2)C(=O)CCl)c(CCCc2ccsc2)c(=O)[nH]1

$$$$

  CDD

  0  0  0  0  0  0            999 V2000
M  END
> <Molecule Name>
CVD-0002615

> <SMILES>
CC1CCC(OCc2ccsc2)C(CN2CCN(CC2)C(=O)CCl)C1

$$$$

  CDD

  0  0  0  0  0  0            999 V2000
M  END
> <Molecule Name>
CVD-0002614

> <SMILES>
CNc1nc(CN2CCN(CC2)C(=O)CCl)ncc1-c1ccsc1

$$$$

  CDD

  0  0  0  0  0  0            999 V2000
M  END
> <Molecule Name>
CVD-0002613

> <SMILES>
Nc1nc(CN2CCN(CC2)C(=O)CCl)ncc1Cc1ccsc1

$$$$

  CDD

  0  0  0  0  0  0            999 V2000
M  END
> <Molecule Name>
CVD-0002612

> <SMILES>
ClCC(=O)N1CCN(Cc2cnc(Cc3ccsc3)s2)CC1

$$$$

  CDD

  0  0  0  0  0  0            999 V2000
M  END
> <Molecule Name>
CVD-0002611

> <SMILES>
ClCC(=O)N1CCN(Cc2ncc(Cc3ccsc3)s2)CC1

$$$$

  CDD

  0  0  0  0  0  0            999 V2000
M  END
> <Molecule Name>
CVD-0002610

> <SMILES>
CNC(=O)C(CCN1CCN(CC1)C(=O)CCl)Nc1ccsc1

$$$$

  CDD

  0  0  0  0  0  0            999 V2000
M  END
> <Molecule Name>
CVD-0002609

> <SMILES>
Cc1cc(CN2CCN(CC2)C(=O)CCl)ccc1C1OC(CO)C(OCN2CCC(O)CC2)C1O

$$$$

  CDD

  0  0  0  0  0  0            999 V2000
M  END
> <Molecule Name>
CVD-0002608

> <SMILES>
Cc1cc(CN2CCN(CC2)C(=O)CCl)ccc1NCCNCN1CCC(O)CC1

$$$$

  CDD

  0  0  0  0  0  0            999 V2000
M  END
> <Molecule Name>
CVD-0002607

> <SMILES>
Cc1cccc(CN2CCN(CC2)c2nc(CC(=O)NCN3CCC(O)CC3)cs2)c1

$$$$

  CDD

  0  0  0  0  0  0            999 V2000
M  END
> <Molecule Name>
CVD-0002606

> <SMILES>
Cc1cccc(CN2CCN(CC2)C(=O)c2ccc(cc2)C#Cc2ccc(nc2)C2CCN(Cc3ccsc3)CC2)c1

$$$$

  CDD

  0  0  0  0  0  0            999 V2000
M  END
> <Molecule Name>
CVD-0002605

> <SMILES>
Cc1cccc(CN2CCN(CC2)c2cc(Cl)c(c(Cl)c2)-c2cc3cnc(nc3[nH]c2=O)C2CCN(Cc3ccsc3)CC2)c1

$$$$

  CDD

  0  0  0  0  0  0            999 V2000
M  END
> <Molecule Name>
CVD-0002604

> <SMILES>
CN(CN1CCC(O)CC1)CN1CCN(CC1)C(=O)CCl

$$$$

  CDD

  0  0  0  0  0  0            999 V2000
M  END
> <Molecule Name>
CVD-0002603

> <SMILES>
NC(CCN1CCN(CC1)C(=O)CCl)N1CCC(O)CC1

$$$$

  CDD

  0  0  0  0  0  0            999 V2000
M  END
> <Molecule Name>
CVD-0002602

> <SMILES>
OC(CN1CCC(O)CC1)C(O)N1CCN(CC1)C(=O)CCl

$$$$

  CDD

  0  0  0  0  0  0            999 V2000
M  END
> <Molecule Name>
CVD-0002601

> <SMILES>
Cc1cccc(CNC(CO)CN2CCC(O)CC2)c1

$$$$

  CDD

  0  0  0  0  0  0            999 V2000
M  END
> <Molecule Name>
CVD-0002600

> <SMILES>
Cc1cccc(CN2CC(CC2C(=O)NCCO)N2CCC(O)CC2)c1

$$$$

  CDD

  0  0  0  0  0  0            999 V2000
M  END
> <Molecule Name>
CVD-0002599

> <SMILES>
NC(CN1CCN(CC1)C(=O)CCl)C(=O)Nc1ccsc1

$$$$

  CDD

  0  0  0  0  0  0            999 V2000
M  END
> <Molecule Name>
CVD-0002598

> <SMILES>
ClCC(=O)N1CCN(CC1)S(=O)(=O)c1ccc(Cc2cccc3ccccc23)s1

$$$$

  CDD

  0  0  0  0  0  0            999 V2000
M  END
> <Molecule Name>
CVD-0002597

> <SMILES>
ClCC(=O)N1CCN(CC1)S(=O)(=O)c1ccc(CN2CCN(CC2)S(=O)(=O)c2cccc3cc(CN4CCN(CC4)S(=O)(=O)c4ccc(Cl)s4)c(CCc4ccsc4)cc23)s1

$$$$

  CDD

  0  0  0  0  0  0            999 V2000
M  END
> <Molecule Name>
CVD-0002596

> <SMILES>
ClCC(=O)N1CCN(CC1)S(=O)(=O)c1ccc(CN2CCN(CC2)S(=O)(=O)c2cccc3cc(CN4CCN(CC4)S(=O)(=O)C4CCC(Cl)S4)c(CCc4ccsc4)cc23)s1

$$$$

  CDD

  0  0  0  0  0  0            999 V2000
M  END
> <Molecule Name>
CVD-0002595

> <SMILES>
ClCC(=O)N1CCN(CC1)S(=O)(=O)c1ccc(CN2CCN(CC2)S(=O)(=O)c2cccc3cc(CN4CCN(CC4)c4ccc(Cl)s4)c(CCc4ccsc4)cc23)s1

$$$$

  CDD

  0  0  0  0  0  0            999 V2000
M  END
> <Molecule Name>
CVD-0002594

> <SMILES>
ClCC(=O)N1CCN(CC1)S(=O)(=O)c1ccc(CN2CCN(CC2)S(=O)(=O)c2cccc3cc(Cc4ccc(Cl)s4)c(Cc4ccsc4)cc23)s1

$$$$

  CDD

  0  0  0  0  0  0            999 V2000
M  END
> <Molecule Name>
CVD-0002593

> <SMILES>
ClCC(=O)N1CCN(CC1)S(=O)(=O)c1ccc(CN2CCN(CC2)S(=O)(=O)c2cccc3cc(CCc4ccc(Cl)s4)c(Cc4ccsc4)cc23)s1

$$$$

  CDD

  0  0  0  0  0  0            999 V2000
M  END
> <Molecule Name>
CVD-0002592

> <SMILES>
ClCC(=O)N1CCN(CC1)S(=O)(=O)c1ccc(CN2CCN(CC2)S(=O)(=O)c2cccc3cc(CCc4ccc(Cl)s4)c(Cc4cccs4)cc23)s1

$$$$

  CDD

  0  0  0  0  0  0            999 V2000
M  END
> <Molecule Name>
CVD-0002591

> <SMILES>
CNCc1cc(-c2c(F)cccc2OC(=O)c2ccc(cc2)S(N)(=O)=O)n(c1)S(=O)(=O)c1cccnc1

$$$$

  CDD

  0  0  0  0  0  0            999 V2000
M  END
> <Molecule Name>
CVD-0002590

> <SMILES>
CNCc1cc(-c2cc(OC(=O)c3ccc(cc3)S(N)(=O)=O)ccc2F)n(c1)S(=O)(=O)c1cccnc1

$$$$

  CDD

  0  0  0  0  0  0            999 V2000
M  END
> <Molecule Name>
CVD-0002589

> <SMILES>
CNCc1cc(-c2ccc(OC(=O)c3ccc(cc3)S(N)(=O)=O)cc2F)n(c1)S(=O)(=O)c1cccnc1

$$$$

  CDD

  0  0  0  0  0  0            999 V2000
M  END
> <Molecule Name>
CVD-0002588

> <SMILES>
CNCc1cc(-c2cccc(OC(=O)c3ccc(cc3)S(N)(=O)=O)c2F)n(c1)S(=O)(=O)c1cccnc1

$$$$

  CDD

  0  0  0  0  0  0            999 V2000
M  END
> <Molecule Name>
CVD-0002587

> <SMILES>
CNCc1cc(-c2ccccc2COC(=O)c2ccc(cc2)S(N)(=O)=O)n(c1)S(=O)(=O)c1cccnc1

$$$$

  CDD

  0  0  0  0  0  0            999 V2000
M  END
> <Molecule Name>
CVD-0002586

> <SMILES>
CNCc1cc(-c2ccccc2NS(=O)(=O)c2ccc(cc2)C(=O)OC)n(c1)S(=O)(=O)c1cccnc1

$$$$

  CDD

  0  0  0  0  0  0            999 V2000
M  END
> <Molecule Name>
CVD-0002585

> <SMILES>
CNN(c1cc(-c2ccccc2F)n(c1)S(=O)(=O)c1cccnc1)S(=O)(=O)c1ccc(cc1)C(=O)OC

$$$$

  CDD

  0  0  0  0  0  0            999 V2000
M  END
> <Molecule Name>
CVD-0002584

> <SMILES>
CNCc1cc(-c2ccccc2F)n(c1)S(=O)(=COC(=O)c1ccc(cc1)S(N)(=O)=O)c1cccnc1

$$$$

  CDD

  0  0  0  0  0  0            999 V2000
M  END
> <Molecule Name>
CVD-0002583

> <SMILES>
CNCc1cc(-c2ccccc2F)n(c1)S(=O)(=O)c1cccnc1OC(=O)c1ccc(cc1)S(N)(=O)=O

$$$$

  CDD

  0  0  0  0  0  0            999 V2000
M  END
> <Molecule Name>
CVD-0002582

> <SMILES>
CNCc1cc(-c2ccccc2F)n(c1)S(=O)(=O)c1cccc(OC(=O)c2ccc(cc2)S(N)(=O)=O)c1

$$$$

  CDD

  0  0  0  0  0  0            999 V2000
M  END
> <Molecule Name>
CVD-0002581

> <SMILES>
COC(=O)c1ccc(cc1)S(=O)(=O)N(C)Cc1cc(-c2ccccc2F)n(c1)S(=O)(=O)c1cccnc1

$$$$

  CDD

  0  0  0  0  0  0            999 V2000
M  END
> <Molecule Name>
CVD-0002580

> <SMILES>
CNCc1cc(-c2ccccc2F)n(c1)S(=O)(=O)c1ccc(OC(=O)c2ccc(cc2)S(N)(=O)=O)nc1

$$$$

  CDD

  0  0  0  0  0  0            999 V2000
M  END
> <Molecule Name>
CVD-0002579

> <SMILES>
CNCc1cc(-c2ccccc2F)n(c1)S(=O)(=O)c1cncc(OC(=O)c2ccc(cc2)S(N)(=O)=O)c1

$$$$

  CDD

  0  0  0  0  0  0            999 V2000
M  END
> <Molecule Name>
CVD-0002578

> <SMILES>
CNCc1cc(-c2ccccc2F)n(c1)S(=O)(=O)c1cnccc1OC(=O)c1ccc(cc1)S(N)(=O)=O

$$$$

  CDD

  0  0  0  0  0  0            999 V2000
M  END
> <Molecule Name>
CVD-0002577

> <SMILES>
CNCc1cc(-c2ccccc2F)n(c1OC(=O)c1ccc(cc1)S(N)(=O)=O)S(=O)(=O)c1cccnc1

$$$$

  CDD

  0  0  0  0  0  0            999 V2000
M  END
> <Molecule Name>
CVD-0002576

> <SMILES>
CNCC1=CC(OC(=O)c2ccc(cc2)S(N)(=O)=O)(C(=C1)c1ccccc1F)S(=O)(=O)c1cccnc1

$$$$

  CDD

  0  0  0  0  0  0            999 V2000
M  END
> <Molecule Name>
CVD-0002575

> <SMILES>
CNCc1cn(c(c1OC(=O)c1ccc(cc1)S(N)(=O)=O)-c1ccccc1F)S(=O)(=O)c1cccnc1

$$$$

  CDD

  0  0  0  0  0  0            999 V2000
M  END
> <Molecule Name>
CVD-0002574

> <SMILES>
CNC(OC(=O)c1ccc(cc1)S(N)(=O)=O)c1cc(-c2ccccc2F)n(c1)S(=O)(=O)c1cccnc1

$$$$

  CDD

  0  0  0  0  0  0            999 V2000
M  END
> <Molecule Name>
CVD-0002573

> <SMILES>
CC(Cc1cc(-c2ccccc2F)n(c1)S(=O)(=O)c1cccnc1)OC(=O)c1ccc(cc1)S(N)(=O)=O

$$$$

  CDD

  0  0  0  0  0  0            999 V2000
M  END
> <Molecule Name>
CVD-0002572

> <SMILES>
NS(=O)(=O)c1ccc(cc1)C(=O)OCNCc1cc(-c2ccccc2F)n(c1)S(=O)(=O)c1cccnc1

$$$$

  CDD

  0  0  0  0  0  0            999 V2000
M  END
> <Molecule Name>
CVD-0002571

> <SMILES>
COC(=O)c1ccc(cc1)S(=O)(=O)NNCc1cc(-c2ccccc2F)n(c1)S(=O)(=O)c1cccnc1

$$$$

  CDD

  0  0  0  0  0  0            999 V2000
M  END
> <Molecule Name>
CVD-0002570

> <SMILES>
O=C(Nc1ccccc1)Nc1ccc(nc1)N1CCN(CC1)C(=O)Cc1c[nH]c2ncccc12

$$$$

  CDD

  0  0  0  0  0  0            999 V2000
M  END
> <Molecule Name>
CVD-0002569

> <SMILES>
O=C(Nc1ccccc1)Nc1cncc(c1)N1CCN(CC1)C(=O)Cc1c[nH]c2ncccc12

$$$$

  CDD

  0  0  0  0  0  0            999 V2000
M  END
> <Molecule Name>
CVD-0002568

> <SMILES>
O=C(Nc1ccccc1)Nc1cnccc1N1CCN(CC1)C(=O)Cc1c[nH]c2ncccc12

$$$$

  CDD

  0  0  0  0  0  0            999 V2000
M  END
> <Molecule Name>
CVD-0002567

> <SMILES>
O=C(Nc1cccnc1)Nc1ccccc1N1CCN(CC1)C(=O)Cc1c[nH]c2ncccc12

$$$$

  CDD

  0  0  0  0  0  0            999 V2000
M  END
> <Molecule Name>
CVD-0002566

> <SMILES>
O=C(Nc1ccc(cc1)N1CCN(CC1)C(=O)Cc1c[nH]c2ncccc12)Nc1cccnc1

$$$$

  CDD

  0  0  0  0  0  0            999 V2000
M  END
> <Molecule Name>
CVD-0002565

> <SMILES>
O=C(Nc1cccnc1)Nc1cccc(c1)N1CCN(CC1)C(=O)Cc1c[nH]c2ncccc12

$$$$

  CDD

  0  0  0  0  0  0            999 V2000
M  END
> <Molecule Name>
CVD-0002564

> <SMILES>
O=C(Nc1ccccc1)Nc1cccnc1N1CCN(CC1)C(=O)Cc1c[nH]c2ncccc12

$$$$

  CDD

  0  0  0  0  0  0            999 V2000
M  END
> <Molecule Name>
CVD-0002563

> <SMILES>
NCC1OC(Cc2c(O)c(O)ccc12)C1CCC(CC1)NCCS(O)(=O)=O

$$$$

  CDD

  0  0  0  0  0  0            999 V2000
M  END
> <Molecule Name>
CVD-0002562

> <SMILES>
CCCC1Cc2c(O)c(O)ccc2C(CN)O1

$$$$

  CDD

  0  0  0  0  0  0            999 V2000
M  END
> <Molecule Name>
CVD-0002561

> <SMILES>
NCC1OC(Cc2c(O)c(O)ccc12)C1CCN(Cc2ccc3[nH]ccc3c2)CC1

$$$$

  CDD

  0  0  0  0  0  0            999 V2000
M  END
> <Molecule Name>
CVD-0002560

> <SMILES>
NCC1OC(Cc2c(O)c(O)ccc12)C1CCC2CC(C=O)N(CCO)CC2C1

$$$$

  CDD

  0  0  0  0  0  0            999 V2000
M  END
> <Molecule Name>
CVD-0002559

> <SMILES>
CN1CCC(CC1)C1Cc2c(O)c(O)ccc2C(CN)O1

$$$$

  CDD

  0  0  0  0  0  0            999 V2000
M  END
> <Molecule Name>
CVD-0002558

> <SMILES>
CC1CCCC(C1)C1Cc2c(O)c(O)ccc2C(CN)O1

$$$$

  CDD

  0  0  0  0  0  0            999 V2000
M  END
> <Molecule Name>
CVD-0002557

> <SMILES>
CC(=O)NC1CCC(CC1)C1Cc2c(O)c(O)ccc2C(CN)O1

$$$$

  CDD

  0  0  0  0  0  0            999 V2000
M  END
> <Molecule Name>
CVD-0002556

> <SMILES>
CN(C)CCCC1Cc2c(O)c(O)ccc2C(CN)O1

$$$$

  CDD

  0  0  0  0  0  0            999 V2000
M  END
> <Molecule Name>
CVD-0002555

> <SMILES>
CC(=O)NCCCC1Cc2c(O)c(O)ccc2C(CN)O1

$$$$

  CDD

  0  0  0  0  0  0            999 V2000
M  END
> <Molecule Name>
CVD-0002554

> <SMILES>
Oc1ccc(CC(NC(=O)S(=O)(=O)NCCc2ccccc2)C(=O)NCC#CBr)cc1

$$$$

  CDD

  0  0  0  0  0  0            999 V2000
M  END
> <Molecule Name>
CVD-0002553

> <SMILES>
Oc1ccc(CC(NC(=O)CS(=O)(=O)NCCc2ccccc2)C(=O)NCC#CBr)cc1

$$$$

  CDD

  0  0  0  0  0  0            999 V2000
M  END
> <Molecule Name>
CVD-0002552

> <SMILES>
CC(=O)NC(Cc1ccc(O)cc1)C(=O)NC(C#CBr)S(=O)(=O)NCCc1ccccc1

$$$$

  CDD

  0  0  0  0  0  0            999 V2000
M  END
> <Molecule Name>
CVD-0002551

> <SMILES>
CC(=O)NC(Cc1ccc(O)cc1)(C(=O)NCC#CBr)S(=O)(=O)NCCc1ccccc1

$$$$

  CDD

  0  0  0  0  0  0            999 V2000
M  END
> <Molecule Name>
CVD-0002550

> <SMILES>
CC(=O)NC(C(c1ccc(O)cc1)S(=O)(=O)NCCc1ccccc1)C(=O)NCC#CBr

$$$$

  CDD

  0  0  0  0  0  0            999 V2000
M  END
> <Molecule Name>
CVD-0002549

> <SMILES>
CC(=O)NC(Cc1ccc(O)cc1S(=O)(=O)NCCc1ccccc1)C(=O)NCC#CBr

$$$$

  CDD

  0  0  0  0  0  0            999 V2000
M  END
> <Molecule Name>
CVD-0002548

> <SMILES>
CS(=O)(=O)NCCc1ccc(cc1)C(=O)NC(Cc1ccc(O)cc1)C(=O)NCC#CBr

$$$$

  CDD

  0  0  0  0  0  0            999 V2000
M  END
> <Molecule Name>
CVD-0002547

> <SMILES>
CS(=O)(=O)NCCc1cccc(c1)C(=O)NC(Cc1ccc(O)cc1)C(=O)NCC#CBr

$$$$

  CDD

  0  0  0  0  0  0            999 V2000
M  END
> <Molecule Name>
CVD-0002546

> <SMILES>
CS(=O)(=O)NCCc1ccccc1C(=O)NC(Cc1ccc(O)cc1)C(=O)NCC#CBr

$$$$

  CDD

  0  0  0  0  0  0            999 V2000
M  END
> <Molecule Name>
CVD-0002545

> <SMILES>
CS(=O)(=O)NCC(C(=O)NC(Cc1ccc(O)cc1)C(=O)NCC#CBr)c1ccccc1

$$$$

  CDD

  0  0  0  0  0  0            999 V2000
M  END
> <Molecule Name>
CVD-0002544

> <SMILES>
CS(=O)(=O)NC(Cc1ccccc1)C(=O)NC(Cc1ccc(O)cc1)C(=O)NCC#CBr

$$$$

  CDD

  0  0  0  0  0  0            999 V2000
M  END
> <Molecule Name>
CVD-0002543

> <SMILES>
CC(=O)NC(Cc1ccc(O)c(c1)S(=O)(=O)NCCc1ccccc1)C(=O)NCC#CBr

$$$$

  CDD

  0  0  0  0  0  0            999 V2000
M  END
> <Molecule Name>
CVD-0002542

> <SMILES>
C=S(=C)(N1CCN(CC1)C=O)c1c2Nc3cnccc3-c1sc2

$$$$

  CDD

  0  0  0  0  0  0            999 V2000
M  END
> <Molecule Name>
CVD-0002541

> <SMILES>
C=S(=C)(N1CCN(CC1)C=O)c1cc2Nc3cnccc3-c1s2

$$$$

  CDD

  0  0  0  0  0  0            999 V2000
M  END
> <Molecule Name>
CVD-0002540

> <SMILES>
C=S(=C)(N1CCN2CC1Nc1cnccc1C2=O)c1ccsc1

$$$$

  CDD

  0  0  0  0  0  0            999 V2000
M  END
> <Molecule Name>
CVD-0002539

> <SMILES>
C=S(=C)(N1CCN2C(C1)Nc1cnccc1C2=O)c1ccsc1

$$$$

  CDD

  0  0  0  0  0  0            999 V2000
M  END
> <Molecule Name>
CVD-0002538

> <SMILES>
C=S(=C)(N1CCN2CC1c1ccncc1NC2=O)c1ccsc1

$$$$

  CDD

  0  0  0  0  0  0            999 V2000
M  END
> <Molecule Name>
CVD-0002537

> <SMILES>
C=S(=C)(N1CCN2C(C1)c1ccncc1NC2=O)c1ccsc1

$$$$

  CDD

  0  0  0  0  0  0            999 V2000
M  END
> <Molecule Name>
CVD-0002536

> <SMILES>
C=S(=C)(N1CCN2CC1c1ccncc1NC(=O)C2=O)c1ccsc1

$$$$

  CDD

  0  0  0  0  0  0            999 V2000
M  END
> <Molecule Name>
CVD-0002535

> <SMILES>
C=S(=C)(N1CCN2C(C1)c1ccncc1NC(=O)C2=O)c1ccsc1

$$$$

  CDD

  0  0  0  0  0  0            999 V2000
M  END
> <Molecule Name>
CVD-0002534

> <SMILES>
C=S(=C)(N1CCN2C(C1)c1ccncc1NC(=O)CC2=O)c1ccsc1

$$$$

  CDD

  0  0  0  0  0  0            999 V2000
M  END
> <Molecule Name>
CVD-0002533

> <SMILES>
O=C(CC1CCC(CC1)S(=O)(=O)NCCc1ccccc1)Nc1cccnc1

$$$$

  CDD

  0  0  0  0  0  0            999 V2000
M  END
> <Molecule Name>
CVD-0002532

> <SMILES>
O=C(CC1CCCC(C1)S(=O)(=O)NCCc1ccccc1)Nc1cccnc1

$$$$

  CDD

  0  0  0  0  0  0            999 V2000
M  END
> <Molecule Name>
CVD-0002531

> <SMILES>
O=C(CC1CCCCC1S(=O)(=O)NCCc1ccccc1)Nc1cccnc1

$$$$

  CDD

  0  0  0  0  0  0            999 V2000
M  END
> <Molecule Name>
CVD-0002530

> <SMILES>
O=C(CC1(CCCCC1)S(=O)(=O)NCCc1ccccc1)Nc1cccnc1

$$$$

  CDD

  0  0  0  0  0  0            999 V2000
M  END
> <Molecule Name>
CVD-0002529

> <SMILES>
O=C(Nc1cccnc1)C(C1CCCCC1)S(=O)(=O)NCCc1ccccc1

$$$$

  CDD

  0  0  0  0  0  0            999 V2000
M  END
> <Molecule Name>
CVD-0002528

> <SMILES>
O=C(CC1CCCCC1)Nc1cncc(c1)S(=O)(=O)NCCc1ccccc1

$$$$

  CDD

  0  0  0  0  0  0            999 V2000
M  END
> <Molecule Name>
CVD-0002527

> <SMILES>
O=C(CC1CCCCC1)Nc1ccc(nc1)S(=O)(=O)NCCc1ccccc1

$$$$

  CDD

  0  0  0  0  0  0            999 V2000
M  END
> <Molecule Name>
CVD-0002526

> <SMILES>
O=C(CC1CCCCC1)Nc1cnccc1S(=O)(=O)NCCc1ccccc1

$$$$

  CDD

  0  0  0  0  0  0            999 V2000
M  END
> <Molecule Name>
CVD-0002525

> <SMILES>
O=C(CC1CCCCC1)Nc1cccnc1S(=O)(=O)NCCc1ccccc1

$$$$

  CDD

  0  0  0  0  0  0            999 V2000
M  END
> <Molecule Name>
CVD-0002524

> <SMILES>
CC(=O)N1CCN(Cc2cccs2)C(C1)C1C(O)CCCN1Cc1ccccc1

$$$$

  CDD

  0  0  0  0  0  0            999 V2000
M  END
> <Molecule Name>
CVD-0002523

> <SMILES>
OC1CCCN2C1C(N1CCN(CC1)C(=O)C2c1ccccc1)c1cccs1

$$$$

  CDD

  0  0  0  0  0  0            999 V2000
M  END
> <Molecule Name>
CVD-0002522

> <SMILES>
CC1C(O)CCCN1C(C(=O)N1CCN(Cc2cccs2)CC1)c1ccccc1

$$$$

  CDD

  0  0  0  0  0  0            999 V2000
M  END
> <Molecule Name>
CVD-0002521

> <SMILES>
CC(=O)N1CCN(CC1)C(C1C(O)CCCN1Cc1ccccc1)c1cccs1

$$$$

  CDD

  0  0  0  0  0  0            999 V2000
M  END
> <Molecule Name>
CVD-0002520

> <SMILES>
OC1CCCN(Cc2ccccc2)C1C(=O)N1CCN(Cc2cccs2)CC1

$$$$

  CDD

  0  0  0  0  0  0            999 V2000
M  END
> <Molecule Name>
CVD-0002519

> <SMILES>
OC1CCCN(Cc2ccccc2)C1CC(=O)N1CCN(Cc2cccs2)CC1

$$$$

  CDD

  0  0  0  0  0  0            999 V2000
M  END
> <Molecule Name>
CVD-0002518

> <SMILES>
O=C(Nc1ccc(Oc2ncccn2)cc1)C(=O)N1CCN(Cc2cccs2)CC1

$$$$

  CDD

  0  0  0  0  0  0            999 V2000
M  END
> <Molecule Name>
CVD-0002517

> <SMILES>
O=C(CC(=O)N1CCN(Cc2cccs2)CC1)Nc1ccc(Oc2ncccn2)cc1

$$$$

  CDD

  0  0  0  0  0  0            999 V2000
M  END
> <Molecule Name>
CVD-0002516

> <SMILES>
OC1CCCN2C1C1CN(Cc3cccs3)CCN1C(=O)C2c1ccccc1

$$$$

  CDD

  0  0  0  0  0  0            999 V2000
M  END
> <Molecule Name>
CVD-0002515

> <SMILES>
CC(=O)N1CCN(Cc2cccs2)CC1C1C(O)CCCN1Cc1ccccc1

$$$$

  CDD

  0  0  0  0  0  0            999 V2000
M  END
> <Molecule Name>
CVD-0002514

> <SMILES>
Oc1ccccc1C(Nc1nc2ccccc2[nH]1)C(=O)N1CCN(Cc2cccs2)CC1

$$$$

  CDD

  0  0  0  0  0  0            999 V2000
M  END
> <Molecule Name>
CVD-0002513

> <SMILES>
COC(=O)C1CC(Cc2cccc(C)c2)CCN1C(=O)CCl

$$$$

  CDD

  0  0  0  0  0  0            999 V2000
M  END
> <Molecule Name>
CVD-0002512

> <SMILES>
Cc1cccc(CC2CC3CCC(C2)N3C(=O)CCl)c1

$$$$

  CDD

  0  0  0  0  0  0            999 V2000
M  END
> <Molecule Name>
CVD-0002511

> <SMILES>
CCOC(=O)C1CC(Cc2cccc(C)c2)CCN1C(=O)CCl

$$$$

  CDD

  0  0  0  0  0  0            999 V2000
M  END
> <Molecule Name>
CVD-0002510

> <SMILES>
Cc1cccc(CC2CCN(CC2)C(=O)CCl)c1

$$$$

  CDD

  0  0  0  0  0  0            999 V2000
M  END
> <Molecule Name>
CVD-0002509

> <SMILES>
Cc1cccc(CC2CCN(C(C2)C(O)=O)C(=O)CCl)c1

$$$$

  CDD

  0  0  0  0  0  0            999 V2000
M  END
> <Molecule Name>
CVD-0002508

> <SMILES>
Cc1cccc(c1)C(O)\C=N\S(C)(=O)=O

$$$$

  CDD

  0  0  0  0  0  0            999 V2000
M  END
> <Molecule Name>
CVD-0002507

> <SMILES>
Cc1ccc(OCCCCC2NCC(CC2=O)c2cc(C)cc(CN3CCN(CC3)C(=O)CCl)c2)cc1

$$$$

  CDD

  0  0  0  0  0  0            999 V2000
M  END
> <Molecule Name>
CVD-0002506

> <SMILES>
ClCC(=O)N1CCN(CNc2ccc(C#N)c(OCCNc3ccc(cn3)C#N)n2)CC1

$$$$

  CDD

  0  0  0  0  0  0            999 V2000
M  END
> <Molecule Name>
CVD-0002505

> <SMILES>
CCNc1ccc(CNC(=O)CCCN2CCN(CC2)C(=O)CCl)cn1

$$$$

  CDD

  0  0  0  0  0  0            999 V2000
M  END
> <Molecule Name>
CVD-0002504

> <SMILES>
CCNc1ccc(cn1)C1OC(O)C(NCN2CCN(CC2)C(=O)CCl)C(O)C1O

$$$$

  CDD

  0  0  0  0  0  0            999 V2000
M  END
> <Molecule Name>
CVD-0002503

> <SMILES>
Cc1cccc(c1)N(C(=O)NS(C)(=O)=O)c1ccc-2c(Cc3ccccc-23)c1

$$$$

  CDD

  0  0  0  0  0  0            999 V2000
M  END
> <Molecule Name>
CVD-0002502

> <SMILES>
CCNc1ccc(cn1)-c1ncn2c(CN3CCN(CC3)C(=O)CCl)c(C)cnc12

$$$$

  CDD

  0  0  0  0  0  0            999 V2000
M  END
> <Molecule Name>
CVD-0002501

> <SMILES>
CCNc1ccc(Oc2nncc3cn(C)c(CN4CCN(CC4)C(=O)CCl)c23)cn1

$$$$

  CDD

  0  0  0  0  0  0            999 V2000
M  END
> <Molecule Name>
CVD-0002500

> <SMILES>
CCNc1ccc(NCc2cnc(C)c(CN3CCN(CC3)C(=O)CCl)c2)cn1

$$$$

  CDD

  0  0  0  0  0  0            999 V2000
M  END
> <Molecule Name>
CVD-0002499

> <SMILES>
COC1CN(CC1CN1CCN(CC1)C(=O)CCl)C(=O)CCNc1ccc(cn1)C#N

$$$$

  CDD

  0  0  0  0  0  0            999 V2000
M  END
> <Molecule Name>
CVD-0002498

> <SMILES>
CC1OC(CN2CCN(CC2)C(=O)CCl)C(O)C1OCCCNc1ccc(cn1)C#N

$$$$

  CDD

  0  0  0  0  0  0            999 V2000
M  END
> <Molecule Name>
CVD-0002497

> <SMILES>
CC1CC(CNCNc2ccc(cn2)C#N)CC(CN2CCN(CC2)C(=O)CCl)C1

$$$$

  CDD

  0  0  0  0  0  0            999 V2000
M  END
> <Molecule Name>
CVD-0002496

> <SMILES>
CC1CC(CN2CCN(CC2)C(=O)CCl)CC(C1)NCCNc1ccc(cn1)C#N

$$$$

  CDD

  0  0  0  0  0  0            999 V2000
M  END
> <Molecule Name>
CVD-0002495

> <SMILES>
CCNc1ccc(Nc2cc(C)cc(CN3CCN(CC3)C(=O)CCl)c2)c(c1)C#N

$$$$

  CDD

  0  0  0  0  0  0            999 V2000
M  END
> <Molecule Name>
CVD-0002494

> <SMILES>
CCNC1CC(CC(O)C1OC#N)c1cccc(CN2CCN(CC2)C(=O)CCl)c1

$$$$

  CDD

  0  0  0  0  0  0            999 V2000
M  END
> <Molecule Name>
CVD-0002493

> <SMILES>
CCNC(COc1cccc(CN2CCN(CC2)C(=O)CCl)c1)OCC#N

$$$$

  CDD

  0  0  0  0  0  0            999 V2000
M  END
> <Molecule Name>
CVD-0002492

> <SMILES>
CC(CCc1ccccc1)N1CCN(CC1)C(=O)CCl

$$$$

  CDD

  0  0  0  0  0  0            999 V2000
M  END
> <Molecule Name>
CVD-0002491

> <SMILES>
CCNC1CC(CCC1OC#N)Oc1cccc(CN2CCN(CC2)C(=O)CCl)c1

$$$$

  CDD

  0  0  0  0  0  0            999 V2000
M  END
> <Molecule Name>
CVD-0002490

> <SMILES>
CN(c1cc(ncn1)S(N)(=O)=O)c1ccc(O)cc1Oc1ccc(C)cc1CN1CCN(CC1)C(=O)CCl

$$$$

  CDD

  0  0  0  0  0  0            999 V2000
M  END
> <Molecule Name>
CVD-0002489

> <SMILES>
CC(CNc1cc(C)cc(CN2CCN(CC2)C(=O)CCl)c1)c1ccc(cc1)S(N)(=O)=O

$$$$

  CDD

  0  0  0  0  0  0            999 V2000
M  END
> <Molecule Name>
CVD-0002488

> <SMILES>
CNC1C(O)OCC(O)C1OC(C(=O)NS(N)(=O)=O)c1ccc(CN2CCN(CC2)C(=O)CCl)cc1C

$$$$

  CDD

  0  0  0  0  0  0            999 V2000
M  END
> <Molecule Name>
CVD-0002487

> <SMILES>
CC(O)C(Cc1c(C)cccc1CN1CCN(CC1)C(=O)CCl)NC(=O)CS(N)(=O)=O

$$$$

  CDD

  0  0  0  0  0  0            999 V2000
M  END
> <Molecule Name>
CVD-0002486

> <SMILES>
COC(=O)C(NS(=O)(=O)NS(N)(=O)=O)c1ccc(CN2CCN(CC2)C(=O)CCl)cc1C

$$$$

  CDD

  0  0  0  0  0  0            999 V2000
M  END
> <Molecule Name>
CVD-0002485

> <SMILES>
Cc1cccc(NCC(=O)NCCCCl)c1

$$$$

  CDD

  0  0  0  0  0  0            999 V2000
M  END
> <Molecule Name>
CVD-0002484

> <SMILES>
Cc1cccc(CCSC2OC(Cl)C(O)C(O)C2O)c1

$$$$

  CDD

  0  0  0  0  0  0            999 V2000
M  END
> <Molecule Name>
CVD-0002483

> <SMILES>
CC(Cl)C(O)N1CCN(Cc2cccc(C)c2)CC1

$$$$

  CDD

  0  0  0  0  0  0            999 V2000
M  END
> <Molecule Name>
CVD-0002482

> <SMILES>
Cc1cccc(CN2CCN(CC2)C(=O)C(Cl)NC=O)c1

$$$$

  CDD

  0  0  0  0  0  0            999 V2000
M  END
> <Molecule Name>
CVD-0002481

> <SMILES>
ClCC(=O)N1CCN(Cc2cnc(nc2)-c2ccccc2)CC1

$$$$

  CDD

  0  0  0  0  0  0            999 V2000
M  END
> <Molecule Name>
CVD-0002480

> <SMILES>
FC1=CCCN(Cc2nnc(s2)-c2ccc(NC(=O)Nc3cccnc3)cc2)C1

$$$$

  CDD

  0  0  0  0  0  0            999 V2000
M  END
> <Molecule Name>
CVD-0002479

> <SMILES>
FC1=CCCN(Cc2nnc(s2)-c2ccncc2NC(=O)Nc2ccccc2)C1

$$$$

  CDD

  0  0  0  0  0  0            999 V2000
M  END
> <Molecule Name>
CVD-0002478

> <SMILES>
FC1=CCCN(Cc2nnc(s2)-c2ccc(NC(=O)Nc3ccccc3)cn2)C1

$$$$

  CDD

  0  0  0  0  0  0            999 V2000
M  END
> <Molecule Name>
CVD-0002477

> <SMILES>
FC1=CCCN(Cc2nnc(s2)-c2cccc(NC(=O)Nc3cccnc3)c2)C1

$$$$

  CDD

  0  0  0  0  0  0            999 V2000
M  END
> <Molecule Name>
CVD-0002476

> <SMILES>
FC1=CCCN(Cc2nnc(s2)-c2ccccc2NC(=O)Nc2cccnc2)C1

$$$$

  CDD

  0  0  0  0  0  0            999 V2000
M  END
> <Molecule Name>
CVD-0002475

> <SMILES>
COC1C(C)OC(C1O)c1ccsc1

$$$$

  CDD

  0  0  0  0  0  0            999 V2000
M  END
> <Molecule Name>
CVD-0002474

> <SMILES>
Cc1ccc(CC(=O)NCCCc2ccsc2)cc1

$$$$

  CDD

  0  0  0  0  0  0            999 V2000
M  END
> <Molecule Name>
CVD-0002473

> <SMILES>
Cc1ccc(cc1)C1OC(O)C(Nc2ccsc2)C(O)C1O

$$$$

  CDD

  0  0  0  0  0  0            999 V2000
M  END
> <Molecule Name>
CVD-0002472

> <SMILES>
Cc1ccc(cc1)C1OCC(Nc2ccsc2)C(O)C1O

$$$$

  CDD

  0  0  0  0  0  0            999 V2000
M  END
> <Molecule Name>
CVD-0002471

> <SMILES>
Cc1ccc(OC2C(O)OC(C(O)C2O)c2ccsc2)cc1

$$$$

  CDD

  0  0  0  0  0  0            999 V2000
M  END
> <Molecule Name>
CVD-0002470

> <SMILES>
Cc1ccc(OC2OCC(C(O)C2O)c2ccsc2)cc1

$$$$

  CDD

  0  0  0  0  0  0            999 V2000
M  END
> <Molecule Name>
CVD-0002469

> <SMILES>
Cc1ccc(COC(=O)CCOC2CCN(Cc3ccsc3)CC2)cc1

$$$$

  CDD

  0  0  0  0  0  0            999 V2000
M  END
> <Molecule Name>
CVD-0002468

> <SMILES>
CN1CCN(CC1)C(=O)COc1ccc(cc1)-c1ccc2C(=O)C(C\C=C\OC3CCN(Cc4ccsc4)CC3)=CC(=O)c2c1

$$$$

  CDD

  0  0  0  0  0  0            999 V2000
M  END
> <Molecule Name>
CVD-0002467

> <SMILES>
Cc1ccc(OC\C=C/Cc2ccsc2)cc1

$$$$

  CDD

  0  0  0  0  0  0            999 V2000
M  END
> <Molecule Name>
CVD-0002466

> <SMILES>
Cc1ccc(OCC(=O)N2CCN(CC2)C2CCCN(C2)C(=O)CCNC(=O)C2CCN(Cc3ccsc3)CC2)cc1

$$$$

  CDD

  0  0  0  0  0  0            999 V2000
M  END
> <Molecule Name>
CVD-0002465

> <SMILES>
CN1CCN(CC1)c1ccc(CN2CCC(O)CC2)c[n+]1C1OCC(O)C1O

$$$$

  CDD

  0  0  0  0  0  0            999 V2000
M  END
> <Molecule Name>
CVD-0002464

> <SMILES>
CN1CCN(CC1)c1ccc(CN2CCC(O)CC2)cc1

$$$$

  CDD

  0  0  0  0  0  0            999 V2000
M  END
> <Molecule Name>
CVD-0002463

> <SMILES>
CN1CCN(CC1)c1ccc(CN2CCC(O)CC2)cc1C(=O)OC1COCC1O

$$$$

  CDD

  0  0  0  0  0  0            999 V2000
M  END
> <Molecule Name>
CVD-0002462

> <SMILES>
CN1CCN(CC1)c1ccc(CN2CCC(O)CC2)c(O)c1

$$$$

  CDD

  0  0  0  0  0  0            999 V2000
M  END
> <Molecule Name>
CVD-0002461

> <SMILES>
Cc1ccc(OCC(=O)c2cc(CN3CCC(O)CC3)oc2C(F)(F)F)cc1

$$$$

  CDD

  0  0  0  0  0  0            999 V2000
M  END
> <Molecule Name>
CVD-0002460

> <SMILES>
CCn1c(CN2CCC(O)CC2)ncc1C(=O)COc1ccc(C)cc1

$$$$

  CDD

  0  0  0  0  0  0            999 V2000
M  END
> <Molecule Name>
CVD-0002459

> <SMILES>
Cc1ccc(OCC(=O)c2c[nH]c(CN3CCC(O)CC3)n2)cc1

$$$$

  CDD

  0  0  0  0  0  0            999 V2000
M  END
> <Molecule Name>
CVD-0002458

> <SMILES>
Cc1ccc(OCC(=O)N2CCN(CC2)c2cnc(CN3CCC(O)CC3)cn2)cc1

$$$$

  CDD

  0  0  0  0  0  0            999 V2000
M  END
> <Molecule Name>
CVD-0002457

> <SMILES>
Cc1ccc(OCC(=O)N2CCN(CC2)c2ccc(CN3CCC(O)CC3)cc2)cc1

$$$$

  CDD

  0  0  0  0  0  0            999 V2000
M  END
> <Molecule Name>
CVD-0002456

> <SMILES>
Cc1ccc(OCCC(O)c2ccsc2)cc1

$$$$

  CDD

  0  0  0  0  0  0            999 V2000
M  END
> <Molecule Name>
CVD-0002455

> <SMILES>
Cc1ccc(OC2CCC(CC2)N2CCC(O)CC2)cc1

$$$$

  CDD

  0  0  0  0  0  0            999 V2000
M  END
> <Molecule Name>
CVD-0002454

> <SMILES>
Cc1ccc(OCCC(NC(=O)c2ccc(C=O)cc2)N2CCC(O)CC2)cc1

$$$$

  CDD

  0  0  0  0  0  0            999 V2000
M  END
> <Molecule Name>
CVD-0002453

> <SMILES>
CC(CCOc1ccc(C)cc1)N1CCC(O)CC1

$$$$

  CDD

  0  0  0  0  0  0            999 V2000
M  END
> <Molecule Name>
CVD-0002452

> <SMILES>
CCC(=O)NC(CCOc1ccc(C)cc1)N1CCC(O)CC1

$$$$

  CDD

  0  0  0  0  0  0            999 V2000
M  END
> <Molecule Name>
CVD-0002451

> <SMILES>
Cc1ccc(cc1)-n1cnn(CC(O)Cc2ccsc2)c1=O

$$$$

  CDD

  0  0  0  0  0  0            999 V2000
M  END
> <Molecule Name>
CVD-0002450

> <SMILES>
CN1CCN(CC1)C(=O)COCSCC1OC(C(O)C1O)c1ccsc1

$$$$

  CDD

  0  0  0  0  0  0            999 V2000
M  END
> <Molecule Name>
CVD-0002449

> <SMILES>
COCCNc1ccsc1

$$$$

  CDD

  0  0  0  0  0  0            999 V2000
M  END
> <Molecule Name>
CVD-0002448

> <SMILES>
CC1CCN(CC1)c1ccsc1

$$$$

  CDD

  0  0  0  0  0  0            999 V2000
M  END
> <Molecule Name>
CVD-0002447

> <SMILES>
CC1COC(C(O)C1O)c1ccsc1

$$$$

  CDD

  0  0  0  0  0  0            999 V2000
M  END
> <Molecule Name>
CVD-0002446

> <SMILES>
CC1CCC(CC1)c1ccsc1

$$$$

  CDD

  0  0  0  0  0  0            999 V2000
M  END
> <Molecule Name>
CVD-0002445

> <SMILES>
Cc1ccc(OCC(N)C(=O)c2ccsc2)cc1

$$$$

  CDD

  0  0  0  0  0  0            999 V2000
M  END
> <Molecule Name>
CVD-0002444

> <SMILES>
ClCC(=O)N1CCC(CC1)C(=O)Nc1ccccc1OCC1(CCCC1)c1ccccn1

$$$$

  CDD

  0  0  0  0  0  0            999 V2000
M  END
> <Molecule Name>
CVD-0002443

> <SMILES>
ClCC(=O)N1CCC(CC1)C(=O)Nc1ccccc1Oc1ccccn1

$$$$

  CDD

  0  0  0  0  0  0            999 V2000
M  END
> <Molecule Name>
CVD-0002442

> <SMILES>
ClCC(=O)N1CCC(CC1)C(=O)Nc1ccccc1OC1CS(=O)(=O)C1

$$$$

  CDD

  0  0  0  0  0  0            999 V2000
M  END
> <Molecule Name>
CVD-0002441

> <SMILES>
C[C@H](Oc1ccccc1NC(=O)C1CCN(CC1)C(=O)CCl)[C@H](NC(C)=O)C(=O)NCC#CBr

$$$$

  CDD

  0  0  0  0  0  0            999 V2000
M  END
> <Molecule Name>
CVD-0002440

> <SMILES>
CC1C(CCCN1Cc1ccccc1)Oc1ccccc1NC(=O)C1CCN(CC1)C(=O)CCl

$$$$

  CDD

  0  0  0  0  0  0            999 V2000
M  END
> <Molecule Name>
CVD-0002439

> <SMILES>
ClCC(=O)N1CCC(CC1)C(=O)Nc1ccccc1Oc1ccccc1CNc1nc2ccccc2[nH]1

$$$$

  CDD

  0  0  0  0  0  0            999 V2000
M  END
> <Molecule Name>
CVD-0002438

> <SMILES>
CC(=O)NC(Cc1ccc(OCC2(CCCC2)c2ccccn2)cc1)C(=O)NCC#CBr

$$$$

  CDD

  0  0  0  0  0  0            999 V2000
M  END
> <Molecule Name>
CVD-0002437

> <SMILES>
CC(=O)NC(Cc1ccc(Oc2ccccc2NC(=O)C2CCN(CC2)C(=O)CCl)cc1)C(=O)NCC#CBr

$$$$

  CDD

  0  0  0  0  0  0            999 V2000
M  END
> <Molecule Name>
CVD-0002436

> <SMILES>
CC(=O)NC(Cc1ccc(Oc2ccccn2)cc1)C(=O)NCC#CBr

$$$$

  CDD

  0  0  0  0  0  0            999 V2000
M  END
> <Molecule Name>
CVD-0002435

> <SMILES>
CC(=O)NC(Cc1ccc(OC2CS(=O)(=O)C2)cc1)C(=O)NCC#CBr

$$$$

  CDD

  0  0  0  0  0  0            999 V2000
M  END
> <Molecule Name>
CVD-0002434

> <SMILES>
C[C@@H](Oc1ccc(CC(NC(C)=O)C(=O)NCC#CBr)cc1)[C@H](NC(C)=O)C(=O)NCC#CBr

$$$$

  CDD

  0  0  0  0  0  0            999 V2000
M  END
> <Molecule Name>
CVD-0002433

> <SMILES>
CC1C(CCCN1Cc1ccccc1)Oc1ccc(CC(NC(C)=O)C(=O)NCC#CBr)cc1

$$$$

  CDD

  0  0  0  0  0  0            999 V2000
M  END
> <Molecule Name>
CVD-0002432

> <SMILES>
CC(=O)NC(Cc1ccc(Oc2ccccc2CNc2nc3ccccc3[nH]2)cc1)C(=O)NCC#CBr

$$$$

  CDD

  0  0  0  0  0  0            999 V2000
M  END
> <Molecule Name>
CVD-0002431

> <SMILES>
C(OCC1(CCCC1)c1ccccn1)C1CN(Cc2ccccc2)CCO1

$$$$

  CDD

  0  0  0  0  0  0            999 V2000
M  END
> <Molecule Name>
CVD-0002430

> <SMILES>
C(Oc1ccccn1)C1CN(Cc2ccccc2)CCO1

$$$$

  CDD

  0  0  0  0  0  0            999 V2000
M  END
> <Molecule Name>
CVD-0002429

> <SMILES>
O=S1(=O)CC(C1)OCC1CN(Cc2ccccc2)CCO1

$$$$

  CDD

  0  0  0  0  0  0            999 V2000
M  END
> <Molecule Name>
CVD-0002428

> <SMILES>
C[C@@H](OCC1CN(Cc2ccccc2)CCO1)[C@H](NC(C)=O)C(=O)NCC#CBr

$$$$

  CDD

  0  0  0  0  0  0            999 V2000
M  END
> <Molecule Name>
CVD-0002427

> <SMILES>
CC1C(CCCN1Cc1ccccc1)OCC1CN(Cc2ccccc2)CCO1

$$$$

  CDD

  0  0  0  0  0  0            999 V2000
M  END
> <Molecule Name>
CVD-0002426

> <SMILES>
ClCC(=O)N1CCC(CC1)C(=O)Nc1ccccc1OCC1CN(Cc2ccccc2)CCO1

$$$$

  CDD

  0  0  0  0  0  0            999 V2000
M  END
> <Molecule Name>
CVD-0002425

> <SMILES>
C(Oc1ccccc1CNc1nc2ccccc2[nH]1)C1CN(Cc2ccccc2)CCO1

$$$$

  CDD

  0  0  0  0  0  0            999 V2000
M  END
> <Molecule Name>
CVD-0002424

> <SMILES>
CC(=O)NC(Cc1ccc(OCC2CN(Cc3ccccc3)CCO2)cc1)C(=O)NCC#CBr

$$$$

  CDD

  0  0  0  0  0  0            999 V2000
M  END
> <Molecule Name>
CVD-0002423

> <SMILES>
C(OC1CCN(Cc2ccsc2)CC1)C1(CCCC1)c1ccccn1

$$$$

  CDD

  0  0  0  0  0  0            999 V2000
M  END
> <Molecule Name>
CVD-0002422

> <SMILES>
C(N1CCC(CC1)Oc1ccccn1)c1ccsc1

$$$$

  CDD

  0  0  0  0  0  0            999 V2000
M  END
> <Molecule Name>
CVD-0002421

> <SMILES>
O=S1(=O)CC(C1)OC1CCN(Cc2ccsc2)CC1

$$$$

  CDD

  0  0  0  0  0  0            999 V2000
M  END
> <Molecule Name>
CVD-0002420

> <SMILES>
C[C@@H](OC1CCN(Cc2ccsc2)CC1)[C@H](NC(C)=O)C(=O)NCC#CBr

$$$$

  CDD

  0  0  0  0  0  0            999 V2000
M  END
> <Molecule Name>
CVD-0002419

> <SMILES>
CC1C(CCCN1Cc1ccccc1)OC1CCN(Cc2ccsc2)CC1

$$$$

  CDD

  0  0  0  0  0  0            999 V2000
M  END
> <Molecule Name>
CVD-0002418

> <SMILES>
C(Nc1nc2ccccc2[nH]1)c1ccccc1OC1CCN(Cc2ccsc2)CC1

$$$$

  CDD

  0  0  0  0  0  0            999 V2000
M  END
> <Molecule Name>
CVD-0002417

> <SMILES>
CC(=O)NC(Cc1ccc(OC2CCN(Cc3ccsc3)CC2)cc1)C(=O)NCC#CBr

$$$$

  CDD

  0  0  0  0  0  0            999 V2000
M  END
> <Molecule Name>
CVD-0002416

> <SMILES>
C(OC1CCN(Cc2ccsc2)CC1)C1CN(Cc2ccccc2)CCO1

$$$$

  CDD

  0  0  0  0  0  0            999 V2000
M  END
> <Molecule Name>
CVD-0002415

> <SMILES>
ClCC(=O)N1CCC(CC1)C(=O)Nc1ccccc1OC1CCN(Cc2ccsc2)CC1

$$$$

  CDD

  0  0  0  0  0  0            999 V2000
M  END
> <Molecule Name>
CVD-0002414

> <SMILES>
Fc1cc2c(cc1Cl)n(-c1ccccc1)c(=S)n(-c1cccnc1)c2=S

$$$$

  CDD

  0  0  0  0  0  0            999 V2000
M  END
> <Molecule Name>
CVD-0002413

> <SMILES>
Fc1cc2c(cc1Cl)n(-c1ccccc1)c(=O)n(-c1cccnc1)c2=S

$$$$

  CDD

  0  0  0  0  0  0            999 V2000
M  END
> <Molecule Name>
CVD-0002412

> <SMILES>
Fc1cc2c(cc1Cl)n(-c1ccccc1)c(=S)n(-c1cccnc1)c2=O

$$$$

  CDD

  0  0  0  0  0  0            999 V2000
M  END
> <Molecule Name>
CVD-0002411

> <SMILES>
Fc1cc2C(=O)N(C(=O)C(c3ccccc3)c2cc1Cl)c1ccccc1

$$$$

  CDD

  0  0  0  0  0  0            999 V2000
M  END
> <Molecule Name>
CVD-0002410

> <SMILES>
Fc1cc2C(=O)C(C(=O)C(c3ccccc3)c2cc1Cl)c1cccnc1

$$$$

  CDD

  0  0  0  0  0  0            999 V2000
M  END
> <Molecule Name>
CVD-0002409

> <SMILES>
Fc1cc2C(=O)C(C(=O)N(c3ccccc3)c2cc1Cl)c1ccccc1

$$$$

  CDD

  0  0  0  0  0  0            999 V2000
M  END
> <Molecule Name>
CVD-0002408

> <SMILES>
Cc1c(Cl)c(F)cc2c1n(-c1ccccc1)c(=O)n(-c1cccnc1)c2=O

$$$$

  CDD

  0  0  0  0  0  0            999 V2000
M  END
> <Molecule Name>
CVD-0002407

> <SMILES>
Cc1c(F)c(Cl)cc2n(-c3ccccc3)c(=O)n(-c3cccnc3)c(=O)c12

$$$$

  CDD

  0  0  0  0  0  0            999 V2000
M  END
> <Molecule Name>
CVD-0002406

> <SMILES>
Cc1ccc(cc1)-n1c2cc(Cl)c(F)cc2c(=O)n(-c2cccnc2)c1=O

$$$$

  CDD

  0  0  0  0  0  0            999 V2000
M  END
> <Molecule Name>
CVD-0002405

> <SMILES>
Cc1cccc(c1)-n1c2cc(Cl)c(F)cc2c(=O)n(-c2cccnc2)c1=O

$$$$

  CDD

  0  0  0  0  0  0            999 V2000
M  END
> <Molecule Name>
CVD-0002404

> <SMILES>
Cc1ccccc1-n1c2cc(Cl)c(F)cc2c(=O)n(-c2cccnc2)c1=O

$$$$

  CDD

  0  0  0  0  0  0            999 V2000
M  END
> <Molecule Name>
CVD-0002403

> <SMILES>
Cc1ccncc1-n1c(=O)n(-c2ccccc2)c2cc(Cl)c(F)cc2c1=O

$$$$

  CDD

  0  0  0  0  0  0            999 V2000
M  END
> <Molecule Name>
CVD-0002402

> <SMILES>
Cc1ncccc1-n1c(=O)n(-c2ccccc2)c2cc(Cl)c(F)cc2c1=O

$$$$

  CDD

  0  0  0  0  0  0            999 V2000
M  END
> <Molecule Name>
CVD-0002401

> <SMILES>
Fc1cc2C(=O)N(C(=O)C(c3ccccc3)c2cc1Cl)c1cccnc1

$$$$

  CDD

  0  0  0  0  0  0            999 V2000
M  END
> <Molecule Name>
CVD-0002400

> <SMILES>
Cc1cncc(c1)-n1c(=O)n(-c2ccccc2)c2cc(Cl)c(F)cc2c1=O

$$$$

  CDD

  0  0  0  0  0  0            999 V2000
M  END
> <Molecule Name>
CVD-0002399

> <SMILES>
Cc1ccc(cn1)-n1c(=O)n(-c2ccccc2)c2cc(Cl)c(F)cc2c1=O

$$$$

  CDD

  0  0  0  0  0  0            999 V2000
M  END
> <Molecule Name>
CVD-0002398

> <SMILES>
Fc1cc2c(cc1Cl)n(-c1ccccc1)c(=O)n(-c1cccnc1)c2=O

$$$$

  CDD

  0  0  0  0  0  0            999 V2000
M  END
> <Molecule Name>
CVD-0002397

> <SMILES>
Fc1cc2c(nc1Cl)n(-c1ccccc1)c(=O)n(-c1cccnc1)c2=O

$$$$

  CDD

  0  0  0  0  0  0            999 V2000
M  END
> <Molecule Name>
CVD-0002396

> <SMILES>
Fc1nc2c(cc1Cl)n(-c1ccccc1)c(=O)n(-c1cccnc1)c2=O

$$$$

  CDD

  0  0  0  0  0  0            999 V2000
M  END
> <Molecule Name>
CVD-0002395

> <SMILES>
Fc1cc2C(=O)C(C(=O)N(c3ccccc3)c2cc1Cl)c1cccnc1

$$$$

  CDD

  0  0  0  0  0  0            999 V2000
M  END
> <Molecule Name>
CVD-0002394

> <SMILES>
Fc1cc2c(cc1Cl)n(-c1ccncc1)c(=O)n(-c1cccnc1)c2=O

$$$$

  CDD

  0  0  0  0  0  0            999 V2000
M  END
> <Molecule Name>
CVD-0002393

> <SMILES>
Fc1cc2c(cc1Cl)n(-c1cccnc1)c(=O)n(-c1cccnc1)c2=O

$$$$

  CDD

  0  0  0  0  0  0            999 V2000
M  END
> <Molecule Name>
CVD-0002392

> <SMILES>
Fc1cc2c(cc1Cl)n(-c1ccccn1)c(=O)n(-c1cccnc1)c2=O

$$$$

  CDD

  0  0  0  0  0  0            999 V2000
M  END
> <Molecule Name>
CVD-0002391

> <SMILES>
Fc1cc2c(cc1Cl)n(-c1ccccc1)c(=O)n(-c1ccnnc1)c2=O

$$$$

  CDD

  0  0  0  0  0  0            999 V2000
M  END
> <Molecule Name>
CVD-0002390

> <SMILES>
Fc1cc2c(cc1Cl)n(-c1ccccc1)c(=O)n(-c1cncnc1)c2=O

$$$$

  CDD

  0  0  0  0  0  0            999 V2000
M  END
> <Molecule Name>
CVD-0002389

> <SMILES>
Fc1cc2c(cc1Cl)n(-c1ccccc1)c(=O)n(-c1cnccn1)c2=O

$$$$

  CDD

  0  0  0  0  0  0            999 V2000
M  END
> <Molecule Name>
CVD-0002388

> <SMILES>
Fc1cc2c(cc1Cl)n(-c1ccccc1)c(=O)n(-c1cccnn1)c2=O

$$$$

  CDD

  0  0  0  0  0  0            999 V2000
M  END
> <Molecule Name>
CVD-0002387

> <SMILES>
Fc1cc2n(-c3ccccc3)c(=O)n(-c3cccnc3)c(=O)c2cc1Cl

$$$$

  CDD

  0  0  0  0  0  0            999 V2000
M  END
> <Molecule Name>
CVD-0002386

> <SMILES>
Fc1cc2n(-c3ccccc3)c(=O)n(-c3cccnc3)c(=O)c2cc1F

$$$$

  CDD

  0  0  0  0  0  0            999 V2000
M  END
> <Molecule Name>
CVD-0002385

> <SMILES>
Clc1cc2n(-c3ccccc3)c(=O)n(-c3cccnc3)c(=O)c2cc1Cl

$$$$

  CDD

  0  0  0  0  0  0            999 V2000
M  END
> <Molecule Name>
CVD-0002384

> <SMILES>
Fc1cc2c(cc1Cl)n(-c1ccccc1)c(=O)n(-c1ccccc1)c2=O

$$$$

  CDD

  0  0  0  0  0  0            999 V2000
M  END
> <Molecule Name>
CVD-0002383

> <SMILES>
CNC(=O)C([N+]CCNC(C)=O)c1cccc(C[N+]2CCN(CC2)C(=O)CCl)c1

$$$$

  CDD

  0  0  0  0  0  0            999 V2000
M  END
> <Molecule Name>
CVD-0002382

> <SMILES>
CNC(N1CCCc2ccc(cc12)S(N)(=O)=O)c1cc(-c2ccccc2F)n(c1)S(=O)(=O)c1cccnc1

$$$$

  CDD

  0  0  0  0  0  0            999 V2000
M  END
> <Molecule Name>
CVD-0002381

> <SMILES>
CC(Cc1cc(-c2ccccc2F)n(c1)S(=O)(=O)c1cccnc1)N1CCCc2ccc(cc12)S(N)(=O)=O

$$$$

  CDD

  0  0  0  0  0  0            999 V2000
M  END
> <Molecule Name>
CVD-0002380

> <SMILES>
CNCc1cc(-c2ccccc2NS(=O)(=O)c2ccc3CCCN(C)c3c2)n(c1)S(=O)(=O)c1cccnc1

$$$$

  CDD

  0  0  0  0  0  0            999 V2000
M  END
> <Molecule Name>
CVD-0002379

> <SMILES>
CNCc1cc(-c2ccccc2F)n(c1)S(=O)(=NS(=O)(=O)c1ccc2CCCN(C)c2c1)c1cccnc1

$$$$

  CDD

  0  0  0  0  0  0            999 V2000
M  END
> <Molecule Name>
CVD-0002378

> <SMILES>
CNN(c1cc(-c2ccccc2F)n(c1)S(=O)(=O)c1cccnc1)S(=O)(=O)c1ccc2CCCN(C)c2c1

$$$$

  CDD

  0  0  0  0  0  0            999 V2000
M  END
> <Molecule Name>
CVD-0002377

> <SMILES>
CC1(CCCc2ccc(cc12)S(N)(=O)=O)NCc1cc(-c2ccccc2F)n(c1)S(=O)(=O)c1cccnc1

$$$$

  CDD

  0  0  0  0  0  0            999 V2000
M  END
> <Molecule Name>
CVD-0002376

> <SMILES>
CN1C(CCc2ccc(cc12)S(N)(=O)=O)NCc1cc(-c2ccccc2F)n(c1)S(=O)(=O)c1cccnc1

$$$$

  CDD

  0  0  0  0  0  0            999 V2000
M  END
> <Molecule Name>
CVD-0002375

> <SMILES>
CN1CC(Cc2ccc(cc12)S(N)(=O)=O)NCc1cc(-c2ccccc2F)n(c1)S(=O)(=O)c1cccnc1

$$$$

  CDD

  0  0  0  0  0  0            999 V2000
M  END
> <Molecule Name>
CVD-0002374

> <SMILES>
CN(Cc1cc(-c2ccccc2F)n(c1)S(=O)(=O)c1cccnc1)S(=O)(=O)c1ccc2CCCN(C)c2c1

$$$$

  CDD

  0  0  0  0  0  0            999 V2000
M  END
> <Molecule Name>
CVD-0002373

> <SMILES>
CN1CCC(NCc2cc(-c3ccccc3F)n(c2)S(=O)(=O)c2cccnc2)c2ccc(cc12)S(N)(=O)=O

$$$$

  CDD

  0  0  0  0  0  0            999 V2000
M  END
> <Molecule Name>
CVD-0002372

> <SMILES>
CN1CCCc2c(NCc3cc(-c4ccccc4F)n(c3)S(=O)(=O)c3cccnc3)cc(cc12)S(N)(=O)=O

$$$$

  CDD

  0  0  0  0  0  0            999 V2000
M  END
> <Molecule Name>
CVD-0002371

> <SMILES>
CN1CCCc2ccc(c(NCc3cc(-c4ccccc4F)n(c3)S(=O)(=O)c3cccnc3)c12)S(N)(=O)=O

$$$$

  CDD

  0  0  0  0  0  0            999 V2000
M  END
> <Molecule Name>
CVD-0002370

> <SMILES>
CN1CCCc2cc(NCc3cc(-c4ccccc4F)n(c3)S(=O)(=O)c3cccnc3)c(cc12)S(N)(=O)=O

$$$$

  CDD

  0  0  0  0  0  0            999 V2000
M  END
> <Molecule Name>
CVD-0002369

> <SMILES>
CN1CCCc2ccc(cc12)S(N)(=O)=CNCc1cc(-c2ccccc2F)n(c1)S(=O)(=O)c1cccnc1

$$$$

  CDD

  0  0  0  0  0  0            999 V2000
M  END
> <Molecule Name>
CVD-0002368

> <SMILES>
CNCc1cc(-c2c(F)cccc2N2CCCc3ccc(cc23)S(N)(=O)=O)n(c1)S(=O)(=O)c1cccnc1

$$$$

  CDD

  0  0  0  0  0  0            999 V2000
M  END
> <Molecule Name>
CVD-0002367

> <SMILES>
CNCc1cc(-c2cc(ccc2F)N2CCCc3ccc(cc23)S(N)(=O)=O)n(c1)S(=O)(=O)c1cccnc1

$$$$

  CDD

  0  0  0  0  0  0            999 V2000
M  END
> <Molecule Name>
CVD-0002366

> <SMILES>
CNCc1cc(-c2ccc(cc2F)N2CCCc3ccc(cc23)S(N)(=O)=O)n(c1)S(=O)(=O)c1cccnc1

$$$$

  CDD

  0  0  0  0  0  0            999 V2000
M  END
> <Molecule Name>
CVD-0002365

> <SMILES>
CNCc1cc(-c2cccc(N3CCCc4ccc(cc34)S(N)(=O)=O)c2F)n(c1)S(=O)(=O)c1cccnc1

$$$$

  CDD

  0  0  0  0  0  0            999 V2000
M  END
> <Molecule Name>
CVD-0002364

> <SMILES>
CNCc1cc(-c2ccccc2F)n(c1)S(=O)(=O)c1cccnc1N1CCCc2ccc(cc12)S(N)(=O)=O

$$$$

  CDD

  0  0  0  0  0  0            999 V2000
M  END
> <Molecule Name>
CVD-0002363

> <SMILES>
CNCc1cc(-c2ccccc2F)n(c1)S(=O)(=O)c1cccc(c1)N1CCCc2ccc(cc12)S(N)(=O)=O

$$$$

  CDD

  0  0  0  0  0  0            999 V2000
M  END
> <Molecule Name>
CVD-0002362

> <SMILES>
CNCc1cc(-c2ccccc2F)n(c1)S(=O)(=O)c1ccc(nc1)N1CCCc2ccc(cc12)S(N)(=O)=O

$$$$

  CDD

  0  0  0  0  0  0            999 V2000
M  END
> <Molecule Name>
CVD-0002361

> <SMILES>
CNCc1cc(-c2ccccc2F)n(c1)S(=O)(=O)c1cncc(c1)N1CCCc2ccc(cc12)S(N)(=O)=O

$$$$

  CDD

  0  0  0  0  0  0            999 V2000
M  END
> <Molecule Name>
CVD-0002360

> <SMILES>
CNCc1cc(-c2ccccc2F)n(c1)S(=O)(=O)c1cnccc1N1CCCc2ccc(cc12)S(N)(=O)=O

$$$$

  CDD

  0  0  0  0  0  0            999 V2000
M  END
> <Molecule Name>
CVD-0002359

> <SMILES>
CNCc1cc(-c2ccccc2F)n(c1)S(=O)(=CN1CCCc2ccc(cc12)S(N)(=O)=O)c1cccnc1

$$$$

  CDD

  0  0  0  0  0  0            999 V2000
M  END
> <Molecule Name>
CVD-0002358

> <SMILES>
CNCc1cc(-c2ccccc2CN2CCCc3ccc(cc23)S(N)(=O)=O)n(c1)S(=O)(=O)c1cccnc1

$$$$

  CDD

  0  0  0  0  0  0            999 V2000
M  END
> <Molecule Name>
CVD-0002357

> <SMILES>
CNCc1cc(-c2ccccc2F)n(c1N1CCCc2ccc(cc12)S(N)(=O)=O)S(=O)(=O)c1cccnc1

$$$$

  CDD

  0  0  0  0  0  0            999 V2000
M  END
> <Molecule Name>
CVD-0002356

> <SMILES>
CNCC1=CC(N2CCCc3ccc(cc23)S(N)(=O)=O)(C(=C1)c1ccccc1F)S(=O)(=O)c1cccnc1

$$$$

  CDD

  0  0  0  0  0  0            999 V2000
M  END
> <Molecule Name>
CVD-0002355

> <SMILES>
CNCc1cn(c(c1N1CCCc2ccc(cc12)S(N)(=O)=O)-c1ccccc1F)S(=O)(=O)c1cccnc1

$$$$

  CDD

  0  0  0  0  0  0            999 V2000
M  END
> <Molecule Name>
CVD-0002354

> <SMILES>
NS(=O)(=O)c1ccc2CCCN(CNCc3cc(-c4ccccc4F)n(c3)S(=O)(=O)c3cccnc3)c2c1

$$$$

  CDD

  0  0  0  0  0  0            999 V2000
M  END
> <Molecule Name>
CVD-0002353

> <SMILES>
CC\C=C(/N)Cc1ccc(nc1)C#N

$$$$

  CDD

  0  0  0  0  0  0            999 V2000
M  END
> <Molecule Name>
CVD-0002352

> <SMILES>
N\C(Cc1ccc(nc1)C#N)=C/CC=C

$$$$

  CDD

  0  0  0  0  0  0            999 V2000
M  END
> <Molecule Name>
CVD-0002351

> <SMILES>
NC(=N)CC1OC(C(O)C1c1ccc(nc1)C#N)n1cnc2cncnc12

$$$$

  CDD

  0  0  0  0  0  0            999 V2000
M  END
> <Molecule Name>
CVD-0002350

> <SMILES>
NC(C(=O)N=C(N)N)c1ccc(nc1)C#N

$$$$

  CDD

  0  0  0  0  0  0            999 V2000
M  END
> <Molecule Name>
CVD-0002349

> <SMILES>
CN(CC(N)=N)Cc1ccc(nc1)C#N

$$$$

  CDD

  0  0  0  0  0  0            999 V2000
M  END
> <Molecule Name>
CVD-0002348

> <SMILES>
CCN(CCN1CCCOCC1)CC1OCC(O)C1O

$$$$

  CDD

  0  0  0  0  0  0            999 V2000
M  END
> <Molecule Name>
CVD-0002347

> <SMILES>
CCN(C)CCN1CCCOCC1

$$$$

  CDD

  0  0  0  0  0  0            999 V2000
M  END
> <Molecule Name>
CVD-0002346

> <SMILES>
CCCNCN1CCCOCC1

$$$$

  CDD

  0  0  0  0  0  0            999 V2000
M  END
> <Molecule Name>
CVD-0002345

> <SMILES>
C\C=C(/N)Cc1ccc(nc1)C#N

$$$$

  CDD

  0  0  0  0  0  0            999 V2000
M  END
> <Molecule Name>
CVD-0002344

> <SMILES>
Nc1nc[nH]c(=O)c1CCN1CCCOCC1

$$$$

  CDD

  0  0  0  0  0  0            999 V2000
M  END
> <Molecule Name>
CVD-0002343

> <SMILES>
Nc1c[nH]c(=O)n1CN1CCCOCC1

$$$$

  CDD

  0  0  0  0  0  0            999 V2000
M  END
> <Molecule Name>
CVD-0002342

> <SMILES>
NC1=C=NC(=N1)N1CCCOCC1

$$$$

  CDD

  0  0  0  0  0  0            999 V2000
M  END
> <Molecule Name>
CVD-0002341

> <SMILES>
NC(=O)C(NS(=O)(=O)c1ccc(O)cc1)c1ccc(nc1)C#N

$$$$

  CDD

  0  0  0  0  0  0            999 V2000
M  END
> <Molecule Name>
CVD-0002340

> <SMILES>
NC(=O)C(Cc1ccccc1)c1ccc(nc1)C#N

$$$$

  CDD

  0  0  0  0  0  0            999 V2000
M  END
> <Molecule Name>
CVD-0002339

> <SMILES>
NCC(=O)NC(C(N)=O)c1ccc(nc1)C#N

$$$$

  CDD

  0  0  0  0  0  0            999 V2000
M  END
> <Molecule Name>
CVD-0002338

> <SMILES>
CC(C(N)=O)c1ccc(nc1)C#N

$$$$

  CDD

  0  0  0  0  0  0            999 V2000
M  END
> <Molecule Name>
CVD-0002337

> <SMILES>
N#Cc1ccc(CN\C(N2CCOCC2)=C2/NC=C(C=C2)C2=NCC(CC2)c2ccc(nc2)C#N)cc1

$$$$

  CDD

  0  0  0  0  0  0            999 V2000
M  END
> <Molecule Name>
CVD-0002336

> <SMILES>
CS(=O)(=O)Nc1cccc(c1)C(=O)Oc1cccc(c1)N1CCCC1=O

$$$$

  CDD

  0  0  0  0  0  0            999 V2000
M  END
> <Molecule Name>
CVD-0002335

> <SMILES>
CS(=O)(=O)Nc1cccc(c1)C(=O)Nc1cccc(c1)N1CCCC1=O

$$$$

  CDD

  0  0  0  0  0  0            999 V2000
M  END
> <Molecule Name>
CVD-0002334

> <SMILES>
CS(=O)(=O)Nc1cccc(c1)C(=O)OC(=O)Nc1cccc(c1)N1CCCC1=O

$$$$

  CDD

  0  0  0  0  0  0            999 V2000
M  END
> <Molecule Name>
CVD-0002333

> <SMILES>
CS(=O)(=O)Nc1cccc(c1)C(=O)OCC(=O)Nc1cccc(c1)N1CCCC1=O

$$$$

  CDD

  0  0  0  0  0  0            999 V2000
M  END
> <Molecule Name>
CVD-0002332

> <SMILES>
COC(=O)c1cccc(NS(=O)(=O)Nc2cccc(c2)N2CCCC2=O)c1

$$$$

  CDD

  0  0  0  0  0  0            999 V2000
M  END
> <Molecule Name>
CVD-0002331

> <SMILES>
COC(=O)c1cccc(NS(=O)(=O)C(=O)Nc2cccc(c2)N2CCCC2=O)c1

$$$$

  CDD

  0  0  0  0  0  0            999 V2000
M  END
> <Molecule Name>
CVD-0002330

> <SMILES>
COC(=O)c1cccc(NS(=O)(=O)CC(=O)Nc2cccc(c2)N2CCCC2=O)c1

$$$$

  CDD

  0  0  0  0  0  0            999 V2000
M  END
> <Molecule Name>
CVD-0002329

> <SMILES>
CC(=O)N1CCN(CC1)C(C(=O)N1CCN(CC1)S(=O)(=O)c1c(F)cccc1F)c1cccs1

$$$$

  CDD

  0  0  0  0  0  0            999 V2000
M  END
> <Molecule Name>
CVD-0002328

> <SMILES>
CC(=O)N1CCN(CC1)C(C(=O)N1CCN(CC1)S(=O)(=O)c1cccc(F)c1)c1ccsc1

$$$$

  CDD

  0  0  0  0  0  0            999 V2000
M  END
> <Molecule Name>
CVD-0002327

> <SMILES>
CC(=O)N1CCN(CC1)C(C(=O)N1CCN(CC1)S(=O)(=O)c1cccc(F)c1)c1cccs1

$$$$

  CDD

  0  0  0  0  0  0            999 V2000
M  END
> <Molecule Name>
CVD-0002326

> <SMILES>
CC(=O)N1CCN(CC1)C(C(=O)N(C1CS(=O)(=O)C=C1)c1ccc(F)cc1)c1ccsc1

$$$$

  CDD

  0  0  0  0  0  0            999 V2000
M  END
> <Molecule Name>
CVD-0002325

> <SMILES>
CC(=O)N1CCN(CC1)C(C(=O)N(C1CS(=O)(=O)C=C1)c1ccc(F)cc1)c1cccs1

$$$$

  CDD

  0  0  0  0  0  0            999 V2000
M  END
> <Molecule Name>
CVD-0002324

> <SMILES>
CC(=O)N1CCN(CC1)C(C(=O)Nc1cccc(c1)N1CCCC1=O)c1ccsc1

$$$$

  CDD

  0  0  0  0  0  0            999 V2000
M  END
> <Molecule Name>
CVD-0002323

> <SMILES>
CC(=O)N1CCN(CC1)C(C(=O)Nc1cccc(c1)N1CCCC1=O)c1cccs1

$$$$

  CDD

  0  0  0  0  0  0            999 V2000
M  END
> <Molecule Name>
CVD-0002322

> <SMILES>
CC(=O)N1CCN(CC1)C(C(=O)N1CCN(Cc2ccsc2)CC1)c1cccs1

$$$$

  CDD

  0  0  0  0  0  0            999 V2000
M  END
> <Molecule Name>
CVD-0002321

> <SMILES>
CC(=O)Nc1cnccc1C(N1CCN(CC1)C(C)=O)c1ccsc1

$$$$

  CDD

  0  0  0  0  0  0            999 V2000
M  END
> <Molecule Name>
CVD-0002320

> <SMILES>
CC(=O)N1CCN(CC1)C(C(=O)Nc1cnccc1C)c1ccsc1

$$$$

  CDD

  0  0  0  0  0  0            999 V2000
M  END
> <Molecule Name>
CVD-0002319

> <SMILES>
CC(=O)Nc1cnccc1C(N1CCN(CC1)C(C)=O)c1cccs1

$$$$

  CDD

  0  0  0  0  0  0            999 V2000
M  END
> <Molecule Name>
CVD-0002318

> <SMILES>
CC(=O)N1CCN(CC1)C(C(=O)Nc1cnccc1C)c1cccs1

$$$$

  CDD

  0  0  0  0  0  0            999 V2000
M  END
> <Molecule Name>
CVD-0002317

> <SMILES>
COC(=O)c1cccc(NS(=O)(=O)C(N2CCN(CC2)C(C)=O)c2ccsc2)c1

$$$$

  CDD

  0  0  0  0  0  0            999 V2000
M  END
> <Molecule Name>
CVD-0002316

> <SMILES>
CC(=O)N1CCN(CC1)C(OC(=O)c1cccc(NS(C)(=O)=O)c1)c1ccsc1

$$$$

  CDD

  0  0  0  0  0  0            999 V2000
M  END
> <Molecule Name>
CVD-0002315

> <SMILES>
COC(=O)c1cccc(NS(=O)(=O)C(N2CCN(CC2)C(C)=O)c2cccs2)c1

$$$$

  CDD

  0  0  0  0  0  0            999 V2000
M  END
> <Molecule Name>
CVD-0002314

> <SMILES>
CC(=O)N1CCN(CC1)C(OC(=O)c1cccc(NS(C)(=O)=O)c1)c1cccs1

$$$$

  CDD

  0  0  0  0  0  0            999 V2000
M  END
> <Molecule Name>
CVD-0002313

> <SMILES>
CC(=O)N1CCN(CC1)C(C(=O)N1CCN(CC1)S(=O)(=O)c1c(F)cccc1F)c1ccsc1

$$$$

  CDD

  0  0  0  0  0  0            999 V2000
M  END
> <Molecule Name>
CVD-0002312

> <SMILES>
CC(=O)N1CCN(CC1)C(C(=O)N1CCN(Cc2cccs2)CC1)c1ccsc1

$$$$

  CDD

  0  0  0  0  0  0            999 V2000
M  END
> <Molecule Name>
CVD-0002311

> <SMILES>
CNCc1cc(-c2ccccc2F)n(c1)S(=O)(=O)c1cccc(c1)C(C)N(C)C(=O)C1CCN(CC1)C(=O)CCl

$$$$

  CDD

  0  0  0  0  0  0            999 V2000
M  END
> <Molecule Name>
CVD-0002310

> <SMILES>
CNCc1cc(-c2ccccc2F)n(c1)S(=O)(=O)c1ccc(nc1)C(C)N(C)C(=O)C1CCN(CC1)C(=O)CCl

$$$$

  CDD

  0  0  0  0  0  0            999 V2000
M  END
> <Molecule Name>
CVD-0002309

> <SMILES>
CNCc1cc(-c2ccccc2F)n(c1)S(=O)(=O)c1cncc(c1)C(C)N(C)C(=O)C1CCN(CC1)C(=O)CCl

$$$$

  CDD

  0  0  0  0  0  0            999 V2000
M  END
> <Molecule Name>
CVD-0002308

> <SMILES>
CNCc1cc(-c2ccccc2F)n(c1)S(=O)(=O)c1cnccc1C(C)N(C)C(=O)C1CCN(CC1)C(=O)CCl

$$$$

  CDD

  0  0  0  0  0  0            999 V2000
M  END
> <Molecule Name>
CVD-0002307

> <SMILES>
CNCc1cc(-c2ccccc2F)n(c1)S(=O)(=CC(C)N(C)C(=O)C1CCN(CC1)C(=O)CCl)c1cccnc1

$$$$

  CDD

  0  0  0  0  0  0            999 V2000
M  END
> <Molecule Name>
CVD-0002306

> <SMILES>
CN(C(=O)C1CCN(CC1)C(=O)CCl)C(C)(C)NCc1cc(-c2ccccc2F)n(c1)S(=O)(=O)c1cccnc1

$$$$

  CDD

  0  0  0  0  0  0            999 V2000
M  END
> <Molecule Name>
CVD-0002305

> <SMILES>
CC(C)C(C)(NCc1cc(-c2ccccc2F)n(c1)S(=O)(=O)c1cccnc1)C(=O)C1CCN(CC1)C(=O)CCl

$$$$

  CDD

  0  0  0  0  0  0            999 V2000
M  END
> <Molecule Name>
CVD-0002304

> <SMILES>
CNCC1=CC(C(C)N(C)C(=O)C2CCN(CC2)C(=O)CCl)(C(=C1)c1ccccc1F)S(=O)(=O)c1cccnc1

$$$$

  CDD

  0  0  0  0  0  0            999 V2000
M  END
> <Molecule Name>
CVD-0002303

> <SMILES>
CC(C)N(C)C(=C\NCc1cc(-c2ccccc2F)n(c1)S(=O)(=O)c1cccnc1)\C1CCN(CC1)C(=O)CCl

$$$$

  CDD

  0  0  0  0  0  0            999 V2000
M  END
> <Molecule Name>
CVD-0002302

> <SMILES>
CC(C)N(C)C(=O)C1(CCN(CC1)C(=O)CCl)NCc1cc(-c2ccccc2F)n(c1)S(=O)(=O)c1cccnc1

$$$$

  CDD

  0  0  0  0  0  0            999 V2000
M  END
> <Molecule Name>
CVD-0002301

> <SMILES>
CC(C)N(C)C(=O)C1CCN(CC1NCc1cc(-c2ccccc2F)n(c1)S(=O)(=O)c1cccnc1)C(=O)CCl

$$$$

  CDD

  0  0  0  0  0  0            999 V2000
M  END
> <Molecule Name>
CVD-0002300

> <SMILES>
CC(C)N(C)C(=O)C1CCN(C(C1)NCc1cc(-c2ccccc2F)n(c1)S(=O)(=O)c1cccnc1)C(=O)CCl

$$$$

  CDD

  0  0  0  0  0  0            999 V2000
M  END
> <Molecule Name>
CVD-0002299

> <SMILES>
CC(C)N(C)C(=O)C1CCC(CC1)(NCc1cc(-c2ccccc2F)n(c1)S(=O)(=O)c1cccnc1)C(=O)CCl

$$$$

  CDD

  0  0  0  0  0  0            999 V2000
M  END
> <Molecule Name>
CVD-0002298

> <SMILES>
CC(C)N(C)C(=O)C1CCN(CC1)C(\CCl)=C/NCc1cc(-c2ccccc2F)n(c1)S(=O)(=O)c1cccnc1

$$$$

  CDD

  0  0  0  0  0  0            999 V2000
M  END
> <Molecule Name>
CVD-0002297

> <SMILES>
CC(C)N(C)C(=O)C1CCN(CC1)C(=O)C(Cl)NCc1cc(-c2ccccc2F)n(c1)S(=O)(=O)c1cccnc1

$$$$

  CDD

  0  0  0  0  0  0            999 V2000
M  END
> <Molecule Name>
CVD-0002296

> <SMILES>
CC(C)N(C)C(=O)C1CCN(CC1)C(=O)CCNCc1cc(-c2ccccc2F)n(c1)S(=O)(=O)c1cccnc1

$$$$

  CDD

  0  0  0  0  0  0            999 V2000
M  END
> <Molecule Name>
CVD-0002295

> <SMILES>
CNCc1cc(-c2c(F)cccc2N(C(C)C)C(=O)C2CCN(CC2)C(=O)CCl)n(c1)S(=O)(=O)c1cccnc1

$$$$

  CDD

  0  0  0  0  0  0            999 V2000
M  END
> <Molecule Name>
CVD-0002294

> <SMILES>
CNCc1cc(-c2cc(ccc2F)N(C(C)C)C(=O)C2CCN(CC2)C(=O)CCl)n(c1)S(=O)(=O)c1cccnc1

$$$$

  CDD

  0  0  0  0  0  0            999 V2000
M  END
> <Molecule Name>
CVD-0002293

> <SMILES>
CNC(C(C)N(C)C(=O)C1CCN(CC1)C(=O)CCl)c1cc(-c2ccccc2F)n(c1)S(=O)(=O)c1cccnc1

$$$$

  CDD

  0  0  0  0  0  0            999 V2000
M  END
> <Molecule Name>
CVD-0002292

> <SMILES>
CNCc1cc(-c2ccc(cc2F)N(C(C)C)C(=O)C2CCN(CC2)C(=O)CCl)n(c1)S(=O)(=O)c1cccnc1

$$$$

  CDD

  0  0  0  0  0  0            999 V2000
M  END
> <Molecule Name>
CVD-0002291

> <SMILES>
CNCc1cc(-c2cccc(N(C(C)C)C(=O)C3CCN(CC3)C(=O)CCl)c2F)n(c1)S(=O)(=O)c1cccnc1

$$$$

  CDD

  0  0  0  0  0  0            999 V2000
M  END
> <Molecule Name>
CVD-0002290

> <SMILES>
CNCc1cc(-c2ccccc2CN(C(C)C)C(=O)C2CCN(CC2)C(=O)CCl)n(c1)S(=O)(=O)c1cccnc1

$$$$

  CDD

  0  0  0  0  0  0            999 V2000
M  END
> <Molecule Name>
CVD-0002289

> <SMILES>
CNCc1cc(-c2ccccc2F)n(c1)S(=O)(=O)c1cccnc1N(C(C)C)C(=O)C1CCN(CC1)C(=O)CCl

$$$$

  CDD

  0  0  0  0  0  0            999 V2000
M  END
> <Molecule Name>
CVD-0002288

> <SMILES>
CNCc1cc(-c2ccccc2F)n(c1)S(=O)(=O)c1cccc(c1)N(C(C)C)C(=O)C1CCN(CC1)C(=O)CCl

$$$$

  CDD

  0  0  0  0  0  0            999 V2000
M  END
> <Molecule Name>
CVD-0002287

> <SMILES>
CNCc1cc(-c2ccccc2F)n(c1)S(=O)(=O)c1ccc(nc1)N(C(C)C)C(=O)C1CCN(CC1)C(=O)CCl

$$$$

  CDD

  0  0  0  0  0  0            999 V2000
M  END
> <Molecule Name>
CVD-0002286

> <SMILES>
CNCc1cc(-c2ccccc2F)n(c1)S(=O)(=O)c1cncc(c1)N(C(C)C)C(=O)C1CCN(CC1)C(=O)CCl

$$$$

  CDD

  0  0  0  0  0  0            999 V2000
M  END
> <Molecule Name>
CVD-0002285

> <SMILES>
CNCc1cc(-c2ccccc2F)n(c1)S(=O)(=O)c1cnccc1N(C(C)C)C(=O)C1CCN(CC1)C(=O)CCl

$$$$

  CDD

  0  0  0  0  0  0            999 V2000
M  END
> <Molecule Name>
CVD-0002284

> <SMILES>
CNCc1cc(-c2ccccc2F)n(c1)S(=O)(=CN(C(C)C)C(=O)C1CCN(CC1)C(=O)CCl)c1cccnc1

$$$$

  CDD

  0  0  0  0  0  0            999 V2000
M  END
> <Molecule Name>
CVD-0002283

> <SMILES>
CC(Cc1cc(-c2ccccc2F)n(c1)S(=O)(=O)c1cccnc1)C(C)N(C)C(=O)C1CCN(CC1)C(=O)CCl

$$$$

  CDD

  0  0  0  0  0  0            999 V2000
M  END
> <Molecule Name>
CVD-0002282

> <SMILES>
CNCC1=CC(N(C(C)C)C(=O)C2CCN(CC2)C(=O)CCl)(C(=C1)c1ccccc1F)S(=O)(=O)c1cccnc1

$$$$

  CDD

  0  0  0  0  0  0            999 V2000
M  END
> <Molecule Name>
CVD-0002281

> <SMILES>
CNC(N(C(C)C)C(=O)C1CCN(CC1)C(=O)CCl)c1cc(-c2ccccc2F)n(c1)S(=O)(=O)c1cccnc1

$$$$

  CDD

  0  0  0  0  0  0            999 V2000
M  END
> <Molecule Name>
CVD-0002280

> <SMILES>
CC(C)N(C(C)Cc1cc(-c2ccccc2F)n(c1)S(=O)(=O)c1cccnc1)C(=O)C1CCN(CC1)C(=O)CCl

$$$$

  CDD

  0  0  0  0  0  0            999 V2000
M  END
> <Molecule Name>
CVD-0002279

> <SMILES>
CC(C)N(CNCc1cc(-c2ccccc2F)n(c1)S(=O)(=O)c1cccnc1)C(=O)C1CCN(CC1)C(=O)CCl

$$$$

  CDD

  0  0  0  0  0  0            999 V2000
M  END
> <Molecule Name>
CVD-0002278

> <SMILES>
CNCc1cc(-c2c(F)cccc2C(C)N(C)C(=O)C2CCN(CC2)C(=O)CCl)n(c1)S(=O)(=O)c1cccnc1

$$$$

  CDD

  0  0  0  0  0  0            999 V2000
M  END
> <Molecule Name>
CVD-0002277

> <SMILES>
CNCc1cc(-c2cc(ccc2F)C(C)N(C)C(=O)C2CCN(CC2)C(=O)CCl)n(c1)S(=O)(=O)c1cccnc1

$$$$

  CDD

  0  0  0  0  0  0            999 V2000
M  END
> <Molecule Name>
CVD-0002276

> <SMILES>
CNCc1cc(-c2ccc(cc2F)C(C)N(C)C(=O)C2CCN(CC2)C(=O)CCl)n(c1)S(=O)(=O)c1cccnc1

$$$$

  CDD

  0  0  0  0  0  0            999 V2000
M  END
> <Molecule Name>
CVD-0002275

> <SMILES>
CNCc1cc(-c2cccc(C(C)N(C)C(=O)C3CCN(CC3)C(=O)CCl)c2F)n(c1)S(=O)(=O)c1cccnc1

$$$$

  CDD

  0  0  0  0  0  0            999 V2000
M  END
> <Molecule Name>
CVD-0002274

> <SMILES>
CNCc1cc(-c2ccccc2CC(C)N(C)C(=O)C2CCN(CC2)C(=O)CCl)n(c1)S(=O)(=O)c1cccnc1

$$$$

  CDD

  0  0  0  0  0  0            999 V2000
M  END
> <Molecule Name>
CVD-0002273

> <SMILES>
CNCc1cc(-c2ccccc2F)n(c1)S(=O)(=O)c1cccnc1C(C)N(C)C(=O)C1CCN(CC1)C(=O)CCl

$$$$

  CDD

  0  0  0  0  0  0            999 V2000
M  END
> <Molecule Name>
CVD-0002272

> <SMILES>
CC(CNCc1cc(-c2ccccc2F)n(c1)S(=O)(=O)c1cccnc1)N(C)C(=O)C1CCN(CC1)C(=O)CCl

$$$$

  CDD

  0  0  0  0  0  0            999 V2000
M  END
> <Molecule Name>
CVD-0002271

> <SMILES>
CS(=O)(=O)NCC(c1nnc(CN2CCC=C(F)C2)s1)c1ccccc1

$$$$

  CDD

  0  0  0  0  0  0            999 V2000
M  END
> <Molecule Name>
CVD-0002270

> <SMILES>
CS(=O)(=O)NC(Cc1ccccc1)c1nnc(CN2CCC=C(F)C2)s1

$$$$

  CDD

  0  0  0  0  0  0            999 V2000
M  END
> <Molecule Name>
CVD-0002269

> <SMILES>
Cc1nnc(CN2CC(F)=CCC2S(=O)(=O)NCCc2ccccc2)s1

$$$$

  CDD

  0  0  0  0  0  0            999 V2000
M  END
> <Molecule Name>
CVD-0002268

> <SMILES>
Cc1nnc(CN2CC(C=C(F)C2)S(=O)(=O)NCCc2ccccc2)s1

$$$$

  CDD

  0  0  0  0  0  0            999 V2000
M  END
> <Molecule Name>
CVD-0002267

> <SMILES>
Cc1nnc(CN2CCC(=C(F)C2)S(=O)(=O)NCCc2ccccc2)s1

$$$$

  CDD

  0  0  0  0  0  0            999 V2000
M  END
> <Molecule Name>
CVD-0002266

> <SMILES>
Cc1nnc(CN2CCC=C(F)C2S(=O)(=O)NCCc2ccccc2)s1

$$$$

  CDD

  0  0  0  0  0  0            999 V2000
M  END
> <Molecule Name>
CVD-0002265

> <SMILES>
Cc1nnc(s1)C(N1CCC=C(F)C1)S(=O)(=O)NCCc1ccccc1

$$$$

  CDD

  0  0  0  0  0  0            999 V2000
M  END
> <Molecule Name>
CVD-0002264

> <SMILES>
FC1=CCCN(Cc2nnc(s2)S(=O)(=O)NCCc2ccccc2)C1

$$$$

  CDD

  0  0  0  0  0  0            999 V2000
M  END
> <Molecule Name>
CVD-0002263

> <SMILES>
CS(=O)(=O)NCCc1ccc(cc1)-c1nnc(CN2CCC=C(F)C2)s1

$$$$

  CDD

  0  0  0  0  0  0            999 V2000
M  END
> <Molecule Name>
CVD-0002262

> <SMILES>
CS(=O)(=O)NCCc1cccc(c1)-c1nnc(CN2CCC=C(F)C2)s1

$$$$

  CDD

  0  0  0  0  0  0            999 V2000
M  END
> <Molecule Name>
CVD-0002261

> <SMILES>
CS(=O)(=O)NCCc1ccccc1-c1nnc(CN2CCC=C(F)C2)s1

$$$$

  CDD

  0  0  0  0  0  0            999 V2000
M  END
> <Molecule Name>
CVD-0002260

> <SMILES>
FC1=CCCN(Cc2nnc(CS(=O)(=O)NCCc3ccccc3)s2)C1

$$$$

  CDD

  0  0  0  0  0  0            999 V2000
M  END
> <Molecule Name>
CVD-0002259

> <SMILES>
CC(=O)NCCCC(=O)NCC(=O)NC[N+]1CCN(CC1)C(=O)CCl

$$$$

  CDD

  0  0  0  0  0  0            999 V2000
M  END
> <Molecule Name>
CVD-0002258

> <SMILES>
Cc1ccncc1NCC(=O)N1CCN(CC1)S(=O)(=O)c1ccsc1

$$$$

  CDD

  0  0  0  0  0  0            999 V2000
M  END
> <Molecule Name>
CVD-0002257

> <SMILES>
Cc1ccncc1NC(=O)N1CCN(CC1)S(=O)(=O)c1ccsc1

$$$$

  CDD

  0  0  0  0  0  0            999 V2000
M  END
> <Molecule Name>
CVD-0002256

> <SMILES>
Cc1ccncc1NC(=O)C(=O)N1CCN(CC1)S(=O)(=O)c1ccsc1

$$$$

  CDD

  0  0  0  0  0  0            999 V2000
M  END
> <Molecule Name>
CVD-0002255

> <SMILES>
Cc1ccncc1NC(=O)CC(=O)N1CCN(CC1)S(=O)(=O)c1ccsc1

$$$$

  CDD

  0  0  0  0  0  0            999 V2000
M  END
> <Molecule Name>
CVD-0002254

> <SMILES>
CC(=O)Nc1cnccc1CC(=O)N1CCN(CC1)S(=O)(=O)c1ccsc1

$$$$

  CDD

  0  0  0  0  0  0            999 V2000
M  END
> <Molecule Name>
CVD-0002253

> <SMILES>
CC(=O)Nc1cnccc1C(=O)N1CCN(CC1)S(=O)(=O)c1ccsc1

$$$$

  CDD

  0  0  0  0  0  0            999 V2000
M  END
> <Molecule Name>
CVD-0002252

> <SMILES>
Fc1ccccc1-c1cc(CNc2ccc3C(CN(Cc3c2)C(=O)CCl)c2ccccc2)cn1S(=O)(=O)c1cccnc1

$$$$

  CDD

  0  0  0  0  0  0            999 V2000
M  END
> <Molecule Name>
CVD-0002251

> <SMILES>
Fc1ccccc1-c1cc(CNc2cccc3C(CN(Cc23)C(=O)CCl)c2ccccc2)cn1S(=O)(=O)c1cccnc1

$$$$

  CDD

  0  0  0  0  0  0            999 V2000
M  END
> <Molecule Name>
CVD-0002250

> <SMILES>
Fc1ccccc1-c1cc(CNC2C(c3ccccc3)c3ccccc3CN2C(=O)CCl)cn1S(=O)(=O)c1cccnc1

$$$$

  CDD

  0  0  0  0  0  0            999 V2000
M  END
> <Molecule Name>
CVD-0002249

> <SMILES>
Fc1ccccc1-c1cc(CNC2(CN(Cc3ccccc23)C(=O)CCl)c2ccccc2)cn1S(=O)(=O)c1cccnc1

$$$$

  CDD

  0  0  0  0  0  0            999 V2000
M  END
> <Molecule Name>
CVD-0002248

> <SMILES>
Fc1ccccc1-c1cc(CNC2N(CC(c3ccccc3)c3ccccc23)C(=O)CCl)cn1S(=O)(=O)c1cccnc1

$$$$

  CDD

  0  0  0  0  0  0            999 V2000
M  END
> <Molecule Name>
CVD-0002247

> <SMILES>
Fc1ccccc1-c1cc(CNC2(CC(c3ccccc3)c3ccccc3C2)C(=O)CCl)cn1S(=O)(=O)c1cccnc1

$$$$

  CDD

  0  0  0  0  0  0            999 V2000
M  END
> <Molecule Name>
CVD-0002246

> <SMILES>
Fc1ccccc1-c1cc(CN\C=C(/CCl)N2CC(c3ccccc3)c3ccccc3C2)cn1S(=O)(=O)c1cccnc1

$$$$

  CDD

  0  0  0  0  0  0            999 V2000
M  END
> <Molecule Name>
CVD-0002245

> <SMILES>
CNC(=C(CCl)N1CC(c2ccccc2)c2ccccc2C1)c1cc(-c2ccccc2F)n(c1)S(=O)(=O)c1cccnc1

$$$$

  CDD

  0  0  0  0  0  0            999 V2000
M  END
> <Molecule Name>
CVD-0002244

> <SMILES>
CNC(Cl)(C(=O)N1CC(c2ccccc2)c2ccccc2C1)c1cc(-c2ccccc2F)n(c1)S(=O)(=O)c1cccnc1

$$$$

  CDD

  0  0  0  0  0  0            999 V2000
M  END
> <Molecule Name>
CVD-0002243

> <SMILES>
Fc1ccccc1-c1cc(CNC(Cl)C(=O)N2CC(c3ccccc3)c3ccccc3C2)cn1S(=O)(=O)c1cccnc1

$$$$

  CDD

  0  0  0  0  0  0            999 V2000
M  END
> <Molecule Name>
CVD-0002242

> <SMILES>
C[N+](Cc1cc(-c2ccccc2F)n(c1)S(=O)(=O)c1cccnc1)=C(CCl)N1CC(c2ccccc2)c2ccccc2C1

$$$$

  CDD

  0  0  0  0  0  0            999 V2000
M  END
> <Molecule Name>
CVD-0002241

> <SMILES>
C[N+](Cl)(Cc1cc(-c2ccccc2F)n(c1)S(=O)(=O)c1cccnc1)C(=O)N1CC(c2ccccc2)c2ccccc2C1

$$$$

  CDD

  0  0  0  0  0  0            999 V2000
M  END
> <Molecule Name>
CVD-0002240

> <SMILES>
CN(CC(=O)N1CC(c2ccccc2)c2ccccc2C1)Cc1cc(-c2ccccc2F)n(c1)S(=O)(=O)c1cccnc1

$$$$

  CDD

  0  0  0  0  0  0            999 V2000
M  END
> <Molecule Name>
CVD-0002239

> <SMILES>
Fc1ccccc1-c1cc(CNc2ccc(cc2)C2CN(Cc3ccccc23)C(=O)CCl)cn1S(=O)(=O)c1cccnc1

$$$$

  CDD

  0  0  0  0  0  0            999 V2000
M  END
> <Molecule Name>
CVD-0002238

> <SMILES>
Fc1ccccc1-c1cc(CNc2cccc(c2)C2CN(Cc3ccccc23)C(=O)CCl)cn1S(=O)(=O)c1cccnc1

$$$$

  CDD

  0  0  0  0  0  0            999 V2000
M  END
> <Molecule Name>
CVD-0002237

> <SMILES>
Fc1ccccc1-c1cc(CNc2ccccc2C2CN(Cc3ccccc23)C(=O)CCl)cn1S(=O)(=O)c1cccnc1

$$$$

  CDD

  0  0  0  0  0  0            999 V2000
M  END
> <Molecule Name>
CVD-0002236

> <SMILES>
Fc1ccccc1-c1cc(CNc2cccc3CN(CC(c4ccccc4)c23)C(=O)CCl)cn1S(=O)(=O)c1cccnc1

$$$$

  CDD

  0  0  0  0  0  0            999 V2000
M  END
> <Molecule Name>
CVD-0002235

> <SMILES>
Fc1ccccc1-c1cc(CNc2ccc3CN(CC(c4ccccc4)c3c2)C(=O)CCl)cn1S(=O)(=O)c1cccnc1

$$$$

  CDD

  0  0  0  0  0  0            999 V2000
M  END
> <Molecule Name>
CVD-0002234

> <SMILES>
Fc1ccccc1-c1cc(CNCCC(=O)N2CC(c3ccccc3)c3ccccc3C2)cn1S(=O)(=O)c1cccnc1

$$$$

  CDD

  0  0  0  0  0  0            999 V2000
M  END
> <Molecule Name>
CVD-0002233

> <SMILES>
CC1C(O)CCCN1Cc1ccccc1

$$$$

  CDD

  0  0  0  0  0  0            999 V2000
M  END
> <Molecule Name>
CVD-0002232

> <SMILES>
CC(=O)Nc1cnccc1C

$$$$

  CDD

  0  0  0  0  0  0            999 V2000
M  END
> <Molecule Name>
CVD-0002231

> <SMILES>
COC(=O)c1cccc(NS(C)(=O)=O)c1

$$$$

  CDD

  0  0  0  0  0  0            999 V2000
M  END
> <Molecule Name>
CVD-0002230

> <SMILES>
CC(=O)N1CCN(CC1)S(=O)(=O)c1c(F)cccc1F

$$$$

  CDD

  0  0  0  0  0  0            999 V2000
M  END
> <Molecule Name>
CVD-0002229

> <SMILES>
CC(=O)N1CCN(CC1)S(=O)(=O)c1cccc(F)c1

$$$$

  CDD

  0  0  0  0  0  0            999 V2000
M  END
> <Molecule Name>
CVD-0002228

> <SMILES>
CC(=O)Nc1cccc(c1)N1CCCC1=O

$$$$

  CDD

  0  0  0  0  0  0            999 V2000
M  END
> <Molecule Name>
CVD-0002227

> <SMILES>
CC(=O)N1CCN(Cc2ccsc2)CC1

$$$$

  CDD

  0  0  0  0  0  0            999 V2000
M  END
> <Molecule Name>
CVD-0002226

> <SMILES>
CC(=O)N1CCN(Cc2cccs2)CC1

$$$$

  CDD

  0  0  0  0  0  0            999 V2000
M  END
> <Molecule Name>
CVD-0002225

> <SMILES>
CC(=O)N1CCN(CC1)S(=O)(=O)c1cccs1

$$$$

  CDD

  0  0  0  0  0  0            999 V2000
M  END
> <Molecule Name>
CVD-0002224

> <SMILES>
CC1OC(C(OCN2CCC(O)CC2)C1O)n1cc(N)c(N)nc1=O

$$$$

  CDD

  0  0  0  0  0  0            999 V2000
M  END
> <Molecule Name>
CVD-0002223

> <SMILES>
CCCC1CCC(CC1)Oc1ccc(C)cc1

$$$$

  CDD

  0  0  0  0  0  0            999 V2000
M  END
> <Molecule Name>
CVD-0002222

> <SMILES>
Cc1ccc(nc1)-c1ccsc1

$$$$

  CDD

  0  0  0  0  0  0            999 V2000
M  END
> <Molecule Name>
CVD-0002221

> <SMILES>
Cc1ccc(cn1)-c1ccsc1

$$$$

  CDD

  0  0  0  0  0  0            999 V2000
M  END
> <Molecule Name>
CVD-0002220

> <SMILES>
Cc1cnc(nc1)-c1ccsc1

$$$$

  CDD

  0  0  0  0  0  0            999 V2000
M  END
> <Molecule Name>
CVD-0002219

> <SMILES>
CC(C)=CCN1CCC(O)CC1

$$$$

  CDD

  0  0  0  0  0  0            999 V2000
M  END
> <Molecule Name>
CVD-0002218

> <SMILES>
CCCC(O)N1CCC(O)CC1

$$$$

  CDD

  0  0  0  0  0  0            999 V2000
M  END
> <Molecule Name>
CVD-0002217

> <SMILES>
CCCNC(=O)CCOc1ccc(C)cc1

$$$$

  CDD

  0  0  0  0  0  0            999 V2000
M  END
> <Molecule Name>
CVD-0002216

> <SMILES>
CCNc1cc(NC(=O)CNC(=O)Nc2cccnc2)c(cn1)C#N

$$$$

  CDD

  0  0  0  0  0  0            999 V2000
M  END
> <Molecule Name>
CVD-0002215

> <SMILES>
CCNc1cc(NC(=O)C(C)NC(=O)Nc2cccnc2)c(cn1)C#N

$$$$

  CDD

  0  0  0  0  0  0            999 V2000
M  END
> <Molecule Name>
CVD-0002214

> <SMILES>
O=C(NC1CNCC1OCCNCNc1ccc(cn1)C#N)Nc1cccnc1

$$$$

  CDD

  0  0  0  0  0  0            999 V2000
M  END
> <Molecule Name>
CVD-0002213

> <SMILES>
CCNc1ncc(cc1Cc1ccc2CNC(=S)c2c1)C#N

$$$$

  CDD

  0  0  0  0  0  0            999 V2000
M  END
> <Molecule Name>
CVD-0002212

> <SMILES>
CCNc1ncc(cc1-c1ccc2CNC(=O)c2c1)C#N

$$$$

  CDD

  0  0  0  0  0  0            999 V2000
M  END
> <Molecule Name>
CVD-0002211

> <SMILES>
CCNC1=C(Cc2ccc3CNC(=O)c3c2)C=C(CN1)C#N

$$$$

  CDD

  0  0  0  0  0  0            999 V2000
M  END
> <Molecule Name>
CVD-0002210

> <SMILES>
CCCc1ncc(cc1Cc1ccc2CCC(=O)c2c1)C#N

$$$$

  CDD

  0  0  0  0  0  0            999 V2000
M  END
> <Molecule Name>
CVD-0002209

> <SMILES>
CCNc1ccc(cc1Cc1ccc2CCC(=O)c2c1)C#N

$$$$

  CDD

  0  0  0  0  0  0            999 V2000
M  END
> <Molecule Name>
CVD-0002208

> <SMILES>
CCNc1ccc(cc1Cc1ccc2CNC(=O)c2c1)C#N

$$$$

  CDD

  0  0  0  0  0  0            999 V2000
M  END
> <Molecule Name>
CVD-0002207

> <SMILES>
CCCc1ncc(cc1Cc1ccc2CNC(=O)c2c1)C#N

$$$$

  CDD

  0  0  0  0  0  0            999 V2000
M  END
> <Molecule Name>
CVD-0002206

> <SMILES>
CCNc1ncc(cc1Cc1ccc2CCC(=O)c2c1)C#N

$$$$

  CDD

  0  0  0  0  0  0            999 V2000
M  END
> <Molecule Name>
CVD-0002205

> <SMILES>
CCCc1ccc(cc1Cc1ccc2CCC(=O)c2c1)C#N

$$$$

  CDD

  0  0  0  0  0  0            999 V2000
M  END
> <Molecule Name>
CVD-0002204

> <SMILES>
CCNc1ncc(cc1CCc1ccc2CNC(=O)c2c1)C#N

$$$$

  CDD

  0  0  0  0  0  0            999 V2000
M  END
> <Molecule Name>
CVD-0002203

> <SMILES>
CCNc1nnc(nc1Cc1ccc2CNC(=O)c2c1)C#N

$$$$

  CDD

  0  0  0  0  0  0            999 V2000
M  END
> <Molecule Name>
CVD-0002202

> <SMILES>
CCNc1ncc(nc1Cc1ccc2CNC(=O)c2c1)C#N

$$$$

  CDD

  0  0  0  0  0  0            999 V2000
M  END
> <Molecule Name>
CVD-0002201

> <SMILES>
CCNc1nnc(cc1Cc1ccc2CNC(=O)c2c1)C#N

$$$$

  CDD

  0  0  0  0  0  0            999 V2000
M  END
> <Molecule Name>
CVD-0002200

> <SMILES>
CCNc1ncc(cc1Cc1cnc2CNC(=O)c2c1)C#N

$$$$

  CDD

  0  0  0  0  0  0            999 V2000
M  END
> <Molecule Name>
CVD-0002199

> <SMILES>
CCNc1ncc(cc1Cc1cc2C(=O)NCc2cn1)C#N

$$$$

  CDD

  0  0  0  0  0  0            999 V2000
M  END
> <Molecule Name>
CVD-0002198

> <SMILES>
Nc1ncc(cc1Cc1ccc2CNC(=O)c2c1)C#N

$$$$

  CDD

  0  0  0  0  0  0            999 V2000
M  END
> <Molecule Name>
CVD-0002197

> <SMILES>
CCNc1ncc(cc1Cc1ccc2CNC(=O)c2n1)C#N

$$$$

  CDD

  0  0  0  0  0  0            999 V2000
M  END
> <Molecule Name>
CVD-0002196

> <SMILES>
CCNc1ncc(cc1Nc1ccc2CNC(=O)c2c1)C#N

$$$$

  CDD

  0  0  0  0  0  0            999 V2000
M  END
> <Molecule Name>
CVD-0002195

> <SMILES>
CCNc1ncc(cc1Cc1ccc2CNC(=O)c2c1)C#[N++]

$$$$

  CDD

  0  0  0  0  0  0            999 V2000
M  END
> <Molecule Name>
CVD-0002194

> <SMILES>
CCCc1ccc(cc1Cc1ccc2CNC(=O)c2c1)C#N

$$$$

  CDD

  0  0  0  0  0  0            999 V2000
M  END
> <Molecule Name>
CVD-0002193

> <SMILES>
CCNc1ncc(cc1Cc1ccc2C[N+]C(=O)c2c1)C#N

$$$$

  CDD

  0  0  0  0  0  0            999 V2000
M  END
> <Molecule Name>
CVD-0002192

> <SMILES>
FCNc1ncc(cc1Cc1ccc2CNC(=O)c2c1)C#N

$$$$

  CDD

  0  0  0  0  0  0            999 V2000
M  END
> <Molecule Name>
CVD-0002191

> <SMILES>
ClCNc1ncc(cc1Cc1ccc2CNC(=O)c2c1)C#N

$$$$

  CDD

  0  0  0  0  0  0            999 V2000
M  END
> <Molecule Name>
CVD-0002190

> <SMILES>
CNc1ncc(cc1Cc1ccc2CNC(=O)c2c1)C#N

$$$$

  CDD

  0  0  0  0  0  0            999 V2000
M  END
> <Molecule Name>
CVD-0002189

> <SMILES>
Fc1ccc2[nH]cc(CCNC(=O)c3ccc(NC(=O)Nc4cccnc4)cc3)c2c1

$$$$

  CDD

  0  0  0  0  0  0            999 V2000
M  END
> <Molecule Name>
CVD-0002188

> <SMILES>
Fc1ccc2[nH]cc(CCNC(=O)c3cccc(NC(=O)Nc4cccnc4)c3)c2c1

$$$$

  CDD

  0  0  0  0  0  0            999 V2000
M  END
> <Molecule Name>
CVD-0002187

> <SMILES>
Fc1ccc2[nH]cc(CCNC(=O)c3ccncc3NC(=O)Nc3ccccc3)c2c1

$$$$

  CDD

  0  0  0  0  0  0            999 V2000
M  END
> <Molecule Name>
CVD-0002186

> <SMILES>
Fc1ccc2[nH]cc(CCNC(=O)c3cncc(NC(=O)Nc4ccccc4)c3)c2c1

$$$$

  CDD

  0  0  0  0  0  0            999 V2000
M  END
> <Molecule Name>
CVD-0002185

> <SMILES>
Fc1ccc2[nH]cc(CCNC(=O)c3ccc(NC(=O)Nc4ccccc4)cn3)c2c1

$$$$

  CDD

  0  0  0  0  0  0            999 V2000
M  END
> <Molecule Name>
CVD-0002184

> <SMILES>
Fc1ccc2[nH]cc(CCNC(=O)c3ccccc3NC(=O)Nc3cccnc3)c2c1

$$$$

  CDD

  0  0  0  0  0  0            999 V2000
M  END
> <Molecule Name>
CVD-0002183

> <SMILES>
Cc1ccncc1NC(=O)CCSCCS(C)(=O)=O

$$$$

  CDD

  0  0  0  0  0  0            999 V2000
M  END
> <Molecule Name>
CVD-0002182

> <SMILES>
Cc1ccncc1NC(=O)CCSCC(NC=O)S(C)(=O)=O

$$$$

  CDD

  0  0  0  0  0  0            999 V2000
M  END
> <Molecule Name>
CVD-0002181

> <SMILES>
Cc1ccncc1NC(=O)C1SCN(CS(C)(=O)=O)C1=O

$$$$

  CDD

  0  0  0  0  0  0            999 V2000
M  END
> <Molecule Name>
CVD-0002180

> <SMILES>
OC1CCN(Cc2ccsc2)CC1S(=O)(=O)NCCc1ccccc1

$$$$

  CDD

  0  0  0  0  0  0            999 V2000
M  END
> <Molecule Name>
CVD-0002179

> <SMILES>
OC1CCN(Cc2ccsc2)C(C1)S(=O)(=O)NCCc1ccccc1

$$$$

  CDD

  0  0  0  0  0  0            999 V2000
M  END
> <Molecule Name>
CVD-0002178

> <SMILES>
OC1CCN(CC1)C(c1ccsc1)S(=O)(=O)NCCc1ccccc1

$$$$

  CDD

  0  0  0  0  0  0            999 V2000
M  END
> <Molecule Name>
CVD-0002177

> <SMILES>
OC1CCN(Cc2cscc2S(=O)(=O)NCCc2ccccc2)CC1

$$$$

  CDD

  0  0  0  0  0  0            999 V2000
M  END
> <Molecule Name>
CVD-0002176

> <SMILES>
OC1CCN(Cc2csc(c2)S(=O)(=O)NCCc2ccccc2)CC1

$$$$

  CDD

  0  0  0  0  0  0            999 V2000
M  END
> <Molecule Name>
CVD-0002175

> <SMILES>
OC1CCN(Cc2ccsc2S(=O)(=O)NCCc2ccccc2)CC1

$$$$

  CDD

  0  0  0  0  0  0            999 V2000
M  END
> <Molecule Name>
CVD-0002174

> <SMILES>
O=C(Nc1ccc(CNc2ccc(cn2)C#N)cc1)Nc1cccnc1

$$$$

  CDD

  0  0  0  0  0  0            999 V2000
M  END
> <Molecule Name>
CVD-0002173

> <SMILES>
O=C(Nc1ccccc1)Nc1cnccc1CNc1ccc(cn1)C#N

$$$$

  CDD

  0  0  0  0  0  0            999 V2000
M  END
> <Molecule Name>
CVD-0002172

> <SMILES>
O=C(Nc1ccccc1)Nc1cncc(CNc2ccc(cn2)C#N)c1

$$$$

  CDD

  0  0  0  0  0  0            999 V2000
M  END
> <Molecule Name>
CVD-0002171

> <SMILES>
O=C(Nc1ccccc1)Nc1ccc(CNc2ccc(cn2)C#N)nc1

$$$$

  CDD

  0  0  0  0  0  0            999 V2000
M  END
> <Molecule Name>
CVD-0002170

> <SMILES>
O=C(Nc1ccccc1)Nc1ccc(Nc2ccc(cn2)C#N)nc1

$$$$

  CDD

  0  0  0  0  0  0            999 V2000
M  END
> <Molecule Name>
CVD-0002169

> <SMILES>
O=C(Nc1ccccc1)Nc1cncc(Nc2ccc(cn2)C#N)c1

$$$$

  CDD

  0  0  0  0  0  0            999 V2000
M  END
> <Molecule Name>
CVD-0002168

> <SMILES>
O=C(Nc1ccccc1)Nc1cnccc1Nc1ccc(cn1)C#N

$$$$

  CDD

  0  0  0  0  0  0            999 V2000
M  END
> <Molecule Name>
CVD-0002167

> <SMILES>
O=C(Nc1cccnc1)Nc1ccccc1Nc1ccc(cn1)C#N

$$$$

  CDD

  0  0  0  0  0  0            999 V2000
M  END
> <Molecule Name>
CVD-0002166

> <SMILES>
O=C(Nc1cccnc1)Nc1cccc(CNc2ccc(cn2)C#N)c1

$$$$

  CDD

  0  0  0  0  0  0            999 V2000
M  END
> <Molecule Name>
CVD-0002165

> <SMILES>
O=C(Nc1ccc(Nc2ccc(cn2)C#N)cc1)Nc1cccnc1

$$$$

  CDD

  0  0  0  0  0  0            999 V2000
M  END
> <Molecule Name>
CVD-0002164

> <SMILES>
O=C(Nc1cccnc1)Nc1cccc(Nc2ccc(cn2)C#N)c1

$$$$

  CDD

  0  0  0  0  0  0            999 V2000
M  END
> <Molecule Name>
CVD-0002163

> <SMILES>
O=C(Nc1ccccc1)Nc1cccnc1Nc1ccc(cn1)C#N

$$$$

  CDD

  0  0  0  0  0  0            999 V2000
M  END
> <Molecule Name>
CVD-0002162

> <SMILES>
O=C(Nc1cccnc1)Nc1ccccc1CNc1ccc(cn1)C#N

$$$$

  CDD

  0  0  0  0  0  0            999 V2000
M  END
> <Molecule Name>
CVD-0002161

> <SMILES>
CCS(=O)(=O)Nc1ccccc1F

$$$$

  CDD

  0  0  0  0  0  0            999 V2000
M  END
> <Molecule Name>
CVD-0002160

> <SMILES>
CC(C)Nc1cccnc1

$$$$

  CDD

  0  0  0  0  0  0            999 V2000
M  END
> <Molecule Name>
CVD-0002159

> <SMILES>
Brc1cccnc1

$$$$

  CDD

  0  0  0  0  0  0            999 V2000
M  END
> <Molecule Name>
CVD-0002158

> <SMILES>
CC(C(C)=O)c1cccnc1

$$$$

  CDD

  0  0  0  0  0  0            999 V2000
M  END
> <Molecule Name>
CVD-0002157

> <SMILES>
CCn1cc(CNC(=O)c2cccnc2)cn1

$$$$

  CDD

  0  0  0  0  0  0            999 V2000
M  END
> <Molecule Name>
CVD-0002156

> <SMILES>
CS(=O)(=O)NCCc1ccc(CC(N)=N)cc1

$$$$

  CDD

  0  0  0  0  0  0            999 V2000
M  END
> <Molecule Name>
CVD-0002155

> <SMILES>
CS(=O)(=O)NCC(CC(N)=N)c1ccccc1

$$$$

  CDD

  0  0  0  0  0  0            999 V2000
M  END
> <Molecule Name>
CVD-0002154

> <SMILES>
CS(=O)(=O)NC(CC(N)=N)Cc1ccccc1

$$$$

  CDD

  0  0  0  0  0  0            999 V2000
M  END
> <Molecule Name>
CVD-0002153

> <SMILES>
NC(=N)S(=O)(=O)NCCc1ccccc1

$$$$

  CDD

  0  0  0  0  0  0            999 V2000
M  END
> <Molecule Name>
CVD-0002152

> <SMILES>
NC(=N)CS(=O)(=O)NCCc1ccccc1

$$$$

  CDD

  0  0  0  0  0  0            999 V2000
M  END
> <Molecule Name>
CVD-0002151

> <SMILES>
CC(C(N)=N)S(=O)(=O)NCCc1ccccc1

$$$$

  CDD

  0  0  0  0  0  0            999 V2000
M  END
> <Molecule Name>
CVD-0002150

> <SMILES>
CS(=O)(=O)NCCc1ccc(cc1)C(N)=N

$$$$

  CDD

  0  0  0  0  0  0            999 V2000
M  END
> <Molecule Name>
CVD-0002149

> <SMILES>
CS(=O)(=O)NCCc1cccc(c1)C(N)=N

$$$$

  CDD

  0  0  0  0  0  0            999 V2000
M  END
> <Molecule Name>
CVD-0002148

> <SMILES>
CS(=O)(=O)NCCc1ccccc1C(N)=N

$$$$

  CDD

  0  0  0  0  0  0            999 V2000
M  END
> <Molecule Name>
CVD-0002147

> <SMILES>
CS(=O)(=O)NCC(C(N)=N)c1ccccc1

$$$$

  CDD

  0  0  0  0  0  0            999 V2000
M  END
> <Molecule Name>
CVD-0002146

> <SMILES>
CS(=O)(=O)NC(Cc1ccccc1)C(N)=N

$$$$

  CDD

  0  0  0  0  0  0            999 V2000
M  END
> <Molecule Name>
CVD-0002145

> <SMILES>
CS(=O)(=O)NCCc1ccccc1CC(N)=N

$$$$

  CDD

  0  0  0  0  0  0            999 V2000
M  END
> <Molecule Name>
CVD-0002144

> <SMILES>
CS(=O)(=O)NCCc1cccc(CC(N)=N)c1

$$$$

  CDD

  0  0  0  0  0  0            999 V2000
M  END
> <Molecule Name>
CVD-0002143

> <SMILES>
NC(=N)CCS(=O)(=O)NCCc1ccccc1

$$$$

  CDD

  0  0  0  0  0  0            999 V2000
M  END
> <Molecule Name>
CVD-0002142

> <SMILES>
CC(=O)N1CCN(CC1)S(=O)(=O)C1=CCS=C1

$$$$

  CDD

  0  0  0  0  0  0            999 V2000
M  END
> <Molecule Name>
CVD-0002141

> <SMILES>
CCC1CC(CCO1)C1Cc2c(O)c(O)ccc2C(CN)O1

$$$$

  CDD

  0  0  0  0  0  0            999 V2000
M  END
> <Molecule Name>
CVD-0002140

> <SMILES>
NCC1OC(Cc2c(O)c(O)ccc12)C1CC(O)CC(O)C1

$$$$

  CDD

  0  0  0  0  0  0            999 V2000
M  END
> <Molecule Name>
CVD-0002139

> <SMILES>
NCC1OC(Cc2c(O)c(O)ccc12)C1CCCC(O)C1O

$$$$

  CDD

  0  0  0  0  0  0            999 V2000
M  END
> <Molecule Name>
CVD-0002138

> <SMILES>
NCC1OC(Cc2c(O)c(O)ccc12)C1CCCN(Cc2cscn2)C1

$$$$

  CDD

  0  0  0  0  0  0            999 V2000
M  END
> <Molecule Name>
CVD-0002137

> <SMILES>
NCC1OC(Cc2c(O)c(O)ccc12)C1CCCC(CO)C1

$$$$

  CDD

  0  0  0  0  0  0            999 V2000
M  END
> <Molecule Name>
CVD-0002136

> <SMILES>
CCC1CCCC(O1)C1Cc2c(O)c(O)ccc2C(CN)O1

$$$$

  CDD

  0  0  0  0  0  0            999 V2000
M  END
> <Molecule Name>
CVD-0002135

> <SMILES>
NCC1OC(Cc2c(O)c(O)ccc12)C1CCCC(O)C1

$$$$

  CDD

  0  0  0  0  0  0            999 V2000
M  END
> <Molecule Name>
CVD-0002134

> <SMILES>
CC(NC(=O)CCc1cccc(c1)S(N)(=O)=O)N1CCC(O)CC1

$$$$

  CDD

  0  0  0  0  0  0            999 V2000
M  END
> <Molecule Name>
CVD-0002133

> <SMILES>
NS(=O)(=O)N1CCOC(C1)c1cccc(c1)N1CCC(O)CC1

$$$$

  CDD

  0  0  0  0  0  0            999 V2000
M  END
> <Molecule Name>
CVD-0002132

> <SMILES>
NS(=O)(=O)C(=O)NCCC(=O)NCN1CCC(O)CC1

$$$$

  CDD

  0  0  0  0  0  0            999 V2000
M  END
> <Molecule Name>
CVD-0002131

> <SMILES>
NS(=O)(=O)CNCCc1cscc1CN1CCC(O)CC1

$$$$

  CDD

  0  0  0  0  0  0            999 V2000
M  END
> <Molecule Name>
CVD-0002130

> <SMILES>
NS(=O)(=O)CSCCc1cscc1CN1CCC(O)CC1

$$$$

  CDD

  0  0  0  0  0  0            999 V2000
M  END
> <Molecule Name>
CVD-0002129

> <SMILES>
CC(OC1C=C(CCC1Nc1cscc1CN1CCC(O)CC1)C(O)=O)S(N)(=O)=O

$$$$

  CDD

  0  0  0  0  0  0            999 V2000
M  END
> <Molecule Name>
CVD-0002128

> <SMILES>
NS(=O)(=O)CCC(=O)Nc1cscc1CN1CCC(O)CC1

$$$$

  CDD

  0  0  0  0  0  0            999 V2000
M  END
> <Molecule Name>
CVD-0002127

> <SMILES>
Cc1[nH]c(C(=O)S(N)(=O)=O)c(Cc2cc(CN3CCC(O)CC3)cs2)c1C=O

$$$$

  CDD

  0  0  0  0  0  0            999 V2000
M  END
> <Molecule Name>
CVD-0002126

> <SMILES>
NS(=O)(=O)NC1CCC(C1)c1cc(CN2CCC(O)CC2)cs1

$$$$

  CDD

  0  0  0  0  0  0            999 V2000
M  END
> <Molecule Name>
CVD-0002125

> <SMILES>
NS(=O)(=O)CCNC(=O)c1cscc1CN1CCC(O)CC1

$$$$

  CDD

  0  0  0  0  0  0            999 V2000
M  END
> <Molecule Name>
CVD-0002124

> <SMILES>
NS(=O)(=O)C1OC(CSCN2CCC(O)CC2)C(O)C1O

$$$$

  CDD

  0  0  0  0  0  0            999 V2000
M  END
> <Molecule Name>
CVD-0002123

> <SMILES>
CN(Cc1csc(n1)S(N)(=O)=O)C(=O)NCN1CCC(O)CC1

$$$$

  CDD

  0  0  0  0  0  0            999 V2000
M  END
> <Molecule Name>
CVD-0002122

> <SMILES>
NS(=O)(=O)Cc1cn(CC(=O)N2CCC(O)CC2)nn1

$$$$

  CDD

  0  0  0  0  0  0            999 V2000
M  END
> <Molecule Name>
CVD-0002121

> <SMILES>
C(Nc1nc2ccccc2[nH]1)c1ccccc1Oc1ccccn1

$$$$

  CDD

  0  0  0  0  0  0            999 V2000
M  END
> <Molecule Name>
CVD-0002120

> <SMILES>
CC1C(CCCN1Cc1ccccc1)Oc1ccccn1

$$$$

  CDD

  0  0  0  0  0  0            999 V2000
M  END
> <Molecule Name>
CVD-0002119

> <SMILES>
C[C@@H](Oc1ccccn1)[C@H](NC(C)=O)C(=O)NCC#CBr

$$$$

  CDD

  0  0  0  0  0  0            999 V2000
M  END
> <Molecule Name>
CVD-0002118

> <SMILES>
O=S1(=O)CC(C1)Oc1ccccn1

$$$$

  CDD

  0  0  0  0  0  0            999 V2000
M  END
> <Molecule Name>
CVD-0002117

> <SMILES>
C(Nc1nc2ccccc2[nH]1)c1ccccc1OCC1(CCCC1)c1ccccn1

$$$$

  CDD

  0  0  0  0  0  0            999 V2000
M  END
> <Molecule Name>
CVD-0002116

> <SMILES>
CC1C(CCCN1Cc1ccccc1)OCC1(CCCC1)c1ccccn1

$$$$

  CDD

  0  0  0  0  0  0            999 V2000
M  END
> <Molecule Name>
CVD-0002115

> <SMILES>
C[C@H](OCC1(CCCC1)c1ccccn1)[C@H](NC(C)=O)C(=O)NCC#CBr

$$$$

  CDD

  0  0  0  0  0  0            999 V2000
M  END
> <Molecule Name>
CVD-0002114

> <SMILES>
O=S1(=O)CC(C1)OCC1(CCCC1)c1ccccn1

$$$$

  CDD

  0  0  0  0  0  0            999 V2000
M  END
> <Molecule Name>
CVD-0002113

> <SMILES>
CC1C(CCCN1Cc1ccccc1)Oc1ccccc1CNc1nc2ccccc2[nH]1

$$$$

  CDD

  0  0  0  0  0  0            999 V2000
M  END
> <Molecule Name>
CVD-0002112

> <SMILES>
C[C@@H](Oc1ccccc1CNc1nc2ccccc2[nH]1)[C@H](NC(C)=O)C(=O)NCC#CBr

$$$$

  CDD

  0  0  0  0  0  0            999 V2000
M  END
> <Molecule Name>
CVD-0002111

> <SMILES>
C[C@H](OC1CCCN(Cc2ccccc2)C1C)[C@H](NC(C)=O)C(=O)NCC#CBr

$$$$

  CDD

  0  0  0  0  0  0            999 V2000
M  END
> <Molecule Name>
CVD-0002110

> <SMILES>
O=S1(=O)CC(C1)Oc1ccccc1CNc1nc2ccccc2[nH]1

$$$$

  CDD

  0  0  0  0  0  0            999 V2000
M  END
> <Molecule Name>
CVD-0002109

> <SMILES>
CC1C(CCCN1Cc1ccccc1)OC1CS(=O)(=O)C1

$$$$

  CDD

  0  0  0  0  0  0            999 V2000
M  END
> <Molecule Name>
CVD-0002108

> <SMILES>
C[C@@H](OC1CS(=O)(=O)C1)[C@H](NC(C)=O)C(=O)NCC#CBr

$$$$

  CDD

  0  0  0  0  0  0            999 V2000
M  END
> <Molecule Name>
CVD-0002107

> <SMILES>
C(Oc1ccccn1)C1(CCCC1)c1ccccn1

$$$$

  CDD

  0  0  0  0  0  0            999 V2000
M  END
> <Molecule Name>
CVD-0002106

> <SMILES>
NCC1OC(Cc2c(O)c(O)ccc12)C1CC(O)CC(O)C1O

$$$$

  CDD

  0  0  0  0  0  0            999 V2000
M  END
> <Molecule Name>
CVD-0002105

> <SMILES>
CCN1CCCC(C1)C1Cc2c(O)c(O)ccc2C(CN)O1

$$$$

  CDD

  0  0  0  0  0  0            999 V2000
M  END
> <Molecule Name>
CVD-0002104

> <SMILES>
NCC1OC(Cc2c(O)c(O)ccc12)C1CCCC(C1)Nc1ccc2ccccc2n1

$$$$

  CDD

  0  0  0  0  0  0            999 V2000
M  END
> <Molecule Name>
CVD-0002103

> <SMILES>
NCC1OC(Cc2c(O)c(O)ccc12)C1CC(O)C(O)CC1O

$$$$

  CDD

  0  0  0  0  0  0            999 V2000
M  END
> <Molecule Name>
CVD-0002102

> <SMILES>
NCC1OC(Cc2c(O)c(O)ccc12)C1NCCCC1O

$$$$

  CDD

  0  0  0  0  0  0            999 V2000
M  END
> <Molecule Name>
CVD-0002101

> <SMILES>
NCC1OC(Cc2c(O)c(O)ccc12)C1C(O)C(O)CC(O)C1O

$$$$

  CDD

  0  0  0  0  0  0            999 V2000
M  END
> <Molecule Name>
CVD-0002100

> <SMILES>
NCC1OC(Cc2c(O)c(O)ccc12)C1C(O)CCC(O)C1O

$$$$

  CDD

  0  0  0  0  0  0            999 V2000
M  END
> <Molecule Name>
CVD-0002099

> <SMILES>
NCC1OC(Cc2c(O)c(O)ccc12)C1CCCCC1

$$$$

  CDD

  0  0  0  0  0  0            999 V2000
M  END
> <Molecule Name>
CVD-0002098

> <SMILES>
NCC1OC(Cc2c(O)c(O)ccc12)C1C(O)CCCC1O

$$$$

  CDD

  0  0  0  0  0  0            999 V2000
M  END
> <Molecule Name>
CVD-0002097

> <SMILES>
NCC1OC(Cc2c(O)c(O)ccc12)C1CCCCC1O

$$$$

  CDD

  0  0  0  0  0  0            999 V2000
M  END
> <Molecule Name>
CVD-0002096

> <SMILES>
NCC1OC(Cc2c(O)c(O)ccc12)C1CCCC(C1)C=O

$$$$

  CDD

  0  0  0  0  0  0            999 V2000
M  END
> <Molecule Name>
CVD-0002095

> <SMILES>
NCC1OC(Cc2c(O)c(O)ccc12)C1CCCNC1

$$$$

  CDD

  0  0  0  0  0  0            999 V2000
M  END
> <Molecule Name>
CVD-0002094

> <SMILES>
OC1C(CNCCc2ccccc2)OC(C1F)n1cnc2c1nc([nH]c2=O)C1CCCCC1

$$$$

  CDD

  0  0  0  0  0  0            999 V2000
M  END
> <Molecule Name>
CVD-0002093

> <SMILES>
O=CSCCNC(=O)CCNCCc1ccccc1

$$$$

  CDD

  0  0  0  0  0  0            999 V2000
M  END
> <Molecule Name>
CVD-0002092

> <SMILES>
O=C(NC(NCCc1ccccc1)c1ccccc1)c1cccs1

$$$$

  CDD

  0  0  0  0  0  0            999 V2000
M  END
> <Molecule Name>
CVD-0002091

> <SMILES>
CCCSCNCCc1ccccc1

$$$$

  CDD

  0  0  0  0  0  0            999 V2000
M  END
> <Molecule Name>
CVD-0002090

> <SMILES>
CSC1CN=C(CC=O)C1NCCc1ccccc1

$$$$

  CDD

  0  0  0  0  0  0            999 V2000
M  END
> <Molecule Name>
CVD-0002089

> <SMILES>
CN1CC(O)C(CSCCOCNCCc2ccccc2)C1

$$$$

  CDD

  0  0  0  0  0  0            999 V2000
M  END
> <Molecule Name>
CVD-0002088

> <SMILES>
OC(CSCCNC=O)NCCc1ccccc1

$$$$

  CDD

  0  0  0  0  0  0            999 V2000
M  END
> <Molecule Name>
CVD-0002087

> <SMILES>
C(Cc1ccccc1)NCSc1cnccn1

$$$$

  CDD

  0  0  0  0  0  0            999 V2000
M  END
> <Molecule Name>
CVD-0002086

> <SMILES>
Cc1ncncc1C#CCNCCc1ccccc1

$$$$

  CDD

  0  0  0  0  0  0            999 V2000
M  END
> <Molecule Name>
CVD-0002085

> <SMILES>
Oc1ccccc1[S+]([O-])CCNCCc1ccccc1

$$$$

  CDD

  0  0  0  0  0  0            999 V2000
M  END
> <Molecule Name>
CVD-0002084

> <SMILES>
CCc1ncnc(N)c1C#CCNCCc1ccccc1

$$$$

  CDD

  0  0  0  0  0  0            999 V2000
M  END
> <Molecule Name>
CVD-0002083

> <SMILES>
O=S(=O)(NCCc1ccccc1)N1CCc2nncn2-c2cc(CC3CCCCC3)ccc12

$$$$

  CDD

  0  0  0  0  0  0            999 V2000
M  END
> <Molecule Name>
CVD-0002082

> <SMILES>
C(Cc1ccccc1)NCC#Cc1cncnc1

$$$$

  CDD

  0  0  0  0  0  0            999 V2000
M  END
> <Molecule Name>
CVD-0002081

> <SMILES>
CC(=O)SCCNC(=O)CNCCc1ccccc1

$$$$

  CDD

  0  0  0  0  0  0            999 V2000
M  END
> <Molecule Name>
CVD-0002080

> <SMILES>
OC(=O)c1cc(CC2CCCCC2)ccc1NS(=O)(=O)NCCc1ccccc1

$$$$

  CDD

  0  0  0  0  0  0            999 V2000
M  END
> <Molecule Name>
CVD-0002079

> <SMILES>
C(Cc1ccccc1)NCc1ccsc1

$$$$

  CDD

  0  0  0  0  0  0            999 V2000
M  END
> <Molecule Name>
CVD-0002078

> <SMILES>
Cc1ccc(NS(=O)(=O)NCCc2ccccc2)c(c1)[N+]([O-])=O

$$$$

  CDD

  0  0  0  0  0  0            999 V2000
M  END
> <Molecule Name>
CVD-0002077

> <SMILES>
Fc1ccc2[nH]cc(NCCCc3cccc(CN4CCN(CC4)C(=O)CCl)c3)c2c1

$$$$

  CDD

  0  0  0  0  0  0            999 V2000
M  END
> <Molecule Name>
CVD-0002076

> <SMILES>
CC(CO)(COc1c[nH]c2ccc(F)cc12)Cc1cccc(CN2CCN(CC2)C(=O)CCl)c1

$$$$

  CDD

  0  0  0  0  0  0            999 V2000
M  END
> <Molecule Name>
CVD-0002075

> <SMILES>
Fc1ccc2[nH]cc(CNCC(=O)NCc3ccc(CN4CCN(CC4)C(=O)CCl)cc3)c2c1

$$$$

  CDD

  0  0  0  0  0  0            999 V2000
M  END
> <Molecule Name>
CVD-0002074

> <SMILES>
COC1CCCC(C1)Oc1cccc(CN2CCN(CC2)C(=O)CCl)c1

$$$$

  CDD

  0  0  0  0  0  0            999 V2000
M  END
> <Molecule Name>
CVD-0002073

> <SMILES>
CNCCSC(=O)c1cccc(CN2CCN(CC2)C(=O)CCl)c1

$$$$

  CDD

  0  0  0  0  0  0            999 V2000
M  END
> <Molecule Name>
CVD-0002072

> <SMILES>
CNC(=O)C(NCCNC(C)=O)c1cccc(CN2CCN(CC2)C(=O)CCl)c1

$$$$

  CDD

  0  0  0  0  0  0            999 V2000
M  END
> <Molecule Name>
CVD-0002071

> <SMILES>
CC(=O)NCCCC(=O)NCC(=O)NCN1CCN(CC1)C(=O)CCl

$$$$

  CDD

  0  0  0  0  0  0            999 V2000
M  END
> <Molecule Name>
CVD-0002070

> <SMILES>
CC(CNc1ccc(cn1)C#N)Cc1cc(-c2ccccc2F)n(c1)S(=O)(=O)c1cccnc1

$$$$

  CDD

  0  0  0  0  0  0            999 V2000
M  END
> <Molecule Name>
CVD-0002069

> <SMILES>
Fc1ccccc1-c1cc(CNCCNc2ccc(cn2)C#N)cn1S(=O)(=O)c1cccnc1

$$$$

  CDD

  0  0  0  0  0  0            999 V2000
M  END
> <Molecule Name>
CVD-0002068

> <SMILES>
CC(NCc1cc(-c2ccccc2F)n(c1)S(=O)(=O)c1cccnc1)Nc1ccc(cn1)C#N

$$$$

  CDD

  0  0  0  0  0  0            999 V2000
M  END
> <Molecule Name>
CVD-0002067

> <SMILES>
CCC(NCc1cc(-c2ccccc2F)n(c1)S(=O)(=O)c1cccnc1)c1ccc(cn1)C#N

$$$$

  CDD

  0  0  0  0  0  0            999 V2000
M  END
> <Molecule Name>
CVD-0002066

> <SMILES>
CCNc1ccc(cc1NCc1cc(-c2ccccc2F)n(c1)S(=O)(=O)c1cccnc1)C#N

$$$$

  CDD

  0  0  0  0  0  0            999 V2000
M  END
> <Molecule Name>
CVD-0002065

> <SMILES>
CCNc1ncc(cc1NCc1cc(-c2ccccc2F)n(c1)S(=O)(=O)c1cccnc1)C#N

$$$$

  CDD

  0  0  0  0  0  0            999 V2000
M  END
> <Molecule Name>
CVD-0002064

> <SMILES>
CCNc1ccc(C#N)c(NCc2cc(-c3ccccc3F)n(c2)S(=O)(=O)c2cccnc2)n1

$$$$

  CDD

  0  0  0  0  0  0            999 V2000
M  END
> <Molecule Name>
CVD-0002063

> <SMILES>
CNCc1cc(-c2c(F)cccc2CNc2ccc(cn2)C#N)n(c1)S(=O)(=O)c1cccnc1

$$$$

  CDD

  0  0  0  0  0  0            999 V2000
M  END
> <Molecule Name>
CVD-0002062

> <SMILES>
CNCc1cc(-c2cc(CNc3ccc(cn3)C#N)ccc2F)n(c1)S(=O)(=O)c1cccnc1

$$$$

  CDD

  0  0  0  0  0  0            999 V2000
M  END
> <Molecule Name>
CVD-0002061

> <SMILES>
CNCc1cc(-c2ccc(CNc3ccc(cn3)C#N)cc2F)n(c1)S(=O)(=O)c1cccnc1

$$$$

  CDD

  0  0  0  0  0  0            999 V2000
M  END
> <Molecule Name>
CVD-0002060

> <SMILES>
CNCc1cc(-c2cccc(CNc3ccc(cn3)C#N)c2F)n(c1)S(=O)(=O)c1cccnc1

$$$$

  CDD

  0  0  0  0  0  0            999 V2000
M  END
> <Molecule Name>
CVD-0002059

> <SMILES>
CCNc1cc(NCc2cc(-c3ccccc3F)n(c2)S(=O)(=O)c2cccnc2)c(cn1)C#N

$$$$

  CDD

  0  0  0  0  0  0            999 V2000
M  END
> <Molecule Name>
CVD-0002058

> <SMILES>
CNCc1cc(-c2ccccc2F)n(c1)S(=O)(=O)c1cccnc1CNc1ccc(cn1)C#N

$$$$

  CDD

  0  0  0  0  0  0            999 V2000
M  END
> <Molecule Name>
CVD-0002057

> <SMILES>
CNCc1cc(-c2ccccc2F)n(c1)S(=O)(=O)c1cccc(CNc2ccc(cn2)C#N)c1

$$$$

  CDD

  0  0  0  0  0  0            999 V2000
M  END
> <Molecule Name>
CVD-0002056

> <SMILES>
CNCc1cc(-c2ccccc2F)n(c1)S(=O)(=O)c1ccc(CNc2ccc(cn2)C#N)nc1

$$$$

  CDD

  0  0  0  0  0  0            999 V2000
M  END
> <Molecule Name>
CVD-0002055

> <SMILES>
CNCc1cc(-c2ccccc2F)n(c1)S(=O)(=O)c1cncc(CNc2ccc(cn2)C#N)c1

$$$$

  CDD

  0  0  0  0  0  0            999 V2000
M  END
> <Molecule Name>
CVD-0002054

> <SMILES>
CNCc1cc(-c2ccccc2F)n(c1)S(=O)(=O)c1cnccc1CNc1ccc(cn1)C#N

$$$$

  CDD

  0  0  0  0  0  0            999 V2000
M  END
> <Molecule Name>
CVD-0002053

> <SMILES>
CNCc1cc(-c2ccccc2F)n(c1)S(=O)(=CCNc1ccc(cn1)C#N)c1cccnc1

$$$$

  CDD

  0  0  0  0  0  0            999 V2000
M  END
> <Molecule Name>
CVD-0002052

> <SMILES>
CNCC1=CC(CNc2ccc(cn2)C#N)(C(=C1)c1ccccc1F)S(=O)(=O)c1cccnc1

$$$$

  CDD

  0  0  0  0  0  0            999 V2000
M  END
> <Molecule Name>
CVD-0002051

> <SMILES>
CNCc1cc(-c2ccccc2F)n(c1CNc1ccc(cn1)C#N)S(=O)(=O)c1cccnc1

$$$$

  CDD

  0  0  0  0  0  0            999 V2000
M  END
> <Molecule Name>
CVD-0002050

> <SMILES>
CNCc1cn(c(c1CNc1ccc(cn1)C#N)-c1ccccc1F)S(=O)(=O)c1cccnc1

$$$$

  CDD

  0  0  0  0  0  0            999 V2000
M  END
> <Molecule Name>
CVD-0002049

> <SMILES>
CNC(CNc1ccc(cn1)C#N)c1cc(-c2ccccc2F)n(c1)S(=O)(=O)c1cccnc1

$$$$

  CDD

  0  0  0  0  0  0            999 V2000
M  END
> <Molecule Name>
CVD-0002048

> <SMILES>
CCNc1ccc(cn1)C#CNCc1cc(-c2ccccc2F)n(c1)S(=O)(=O)c1cccnc1

$$$$

  CDD

  0  0  0  0  0  0            999 V2000
M  END
> <Molecule Name>
CVD-0002047

> <SMILES>
CC(=O)Nc1cnccc1-c1ccc(NC(=O)Nc2ccccc2)cn1

$$$$

  CDD

  0  0  0  0  0  0            999 V2000
M  END
> <Molecule Name>
CVD-0002046

> <SMILES>
CC(=O)Nc1cnccc1-c1cncc(NC(=O)Nc2ccccc2)c1

$$$$

  CDD

  0  0  0  0  0  0            999 V2000
M  END
> <Molecule Name>
CVD-0002045

> <SMILES>
CC(=O)Nc1cnccc1-c1ccncc1NC(=O)Nc1ccccc1

$$$$

  CDD

  0  0  0  0  0  0            999 V2000
M  END
> <Molecule Name>
CVD-0002044

> <SMILES>
CC(=O)Nc1cnccc1-c1ccccc1NC(=O)Nc1cccnc1

$$$$

  CDD

  0  0  0  0  0  0            999 V2000
M  END
> <Molecule Name>
CVD-0002043

> <SMILES>
CC(=O)Nc1cnccc1-c1ccc(NC(=O)Nc2cccnc2)cc1

$$$$

  CDD

  0  0  0  0  0  0            999 V2000
M  END
> <Molecule Name>
CVD-0002042

> <SMILES>
Cc1ccncc1NC(=O)c1ncccc1NC(=O)Nc1ccccc1

$$$$

  CDD

  0  0  0  0  0  0            999 V2000
M  END
> <Molecule Name>
CVD-0002041

> <SMILES>
Cc1ccncc1NC(=O)c1ccc(NC(=O)Nc2ccccc2)cn1

$$$$

  CDD

  0  0  0  0  0  0            999 V2000
M  END
> <Molecule Name>
CVD-0002040

> <SMILES>
Cc1ccncc1NC(=O)c1cncc(NC(=O)Nc2ccccc2)c1

$$$$

  CDD

  0  0  0  0  0  0            999 V2000
M  END
> <Molecule Name>
CVD-0002039

> <SMILES>
Cc1ccncc1NC(=O)c1ccncc1NC(=O)Nc1ccccc1

$$$$

  CDD

  0  0  0  0  0  0            999 V2000
M  END
> <Molecule Name>
CVD-0002038

> <SMILES>
CC(=O)Nc1cnccc1-c1cccc(NC(=O)Nc2cccnc2)c1

$$$$

  CDD

  0  0  0  0  0  0            999 V2000
M  END
> <Molecule Name>
CVD-0002037

> <SMILES>
Cc1ccncc1NC(=O)c1ccc(NC(=O)Nc2cccnc2)cc1

$$$$

  CDD

  0  0  0  0  0  0            999 V2000
M  END
> <Molecule Name>
CVD-0002036

> <SMILES>
Cc1ccncc1NC(=O)c1cccc(NC(=O)Nc2cccnc2)c1

$$$$

  CDD

  0  0  0  0  0  0            999 V2000
M  END
> <Molecule Name>
CVD-0002035

> <SMILES>
Cc1ccncc1NC(=O)c1ccccc1NC(=O)Nc1cccnc1

$$$$

  CDD

  0  0  0  0  0  0            999 V2000
M  END
> <Molecule Name>
CVD-0002034

> <SMILES>
CC(=O)Nc1cnccc1-c1ncccc1NC(=O)Nc1ccccc1

$$$$

  CDD

  0  0  0  0  0  0            999 V2000
M  END
> <Molecule Name>
CVD-0002033

> <SMILES>
Fc1ccc2[nH]cc(CCNC(=O)N3CCN(CC3)C(=O)Cc3c[nH]c4ncccc34)c2c1

$$$$

  CDD

  0  0  0  0  0  0            999 V2000
M  END
> <Molecule Name>
CVD-0002032

> <SMILES>
Fc1ccc2[nH]cc(CCNC(=O)CN3CCN(CC3)C(=O)Cc3c[nH]c4ncccc34)c2c1

$$$$

  CDD

  0  0  0  0  0  0            999 V2000
M  END
> <Molecule Name>
CVD-0002031

> <SMILES>
CN1CCN(CC1C(=O)NCCc1c[nH]c2ccc(F)cc12)C(=O)Cc1c[nH]c2ncccc12

$$$$

  CDD

  0  0  0  0  0  0            999 V2000
M  END
> <Molecule Name>
CVD-0002030

> <SMILES>
CN1CCN(C(C1)C(=O)NCCc1c[nH]c2ccc(F)cc12)C(=O)Cc1c[nH]c2ncccc12

$$$$

  CDD

  0  0  0  0  0  0            999 V2000
M  END
> <Molecule Name>
CVD-0002029

> <SMILES>
Fc1ccc2[nH]cc(C3CNC(=O)C(c4c[nH]c5ncccc45)C(=O)N4CCN3CC4)c2c1

$$$$

  CDD

  0  0  0  0  0  0            999 V2000
M  END
> <Molecule Name>
CVD-0002028

> <SMILES>
Fc1ccc2[nH]cc(CC3NC(=O)C(c4c[nH]c5ncccc45)C(=O)N4CCN3CC4)c2c1

$$$$

  CDD

  0  0  0  0  0  0            999 V2000
M  END
> <Molecule Name>
CVD-0002027

> <SMILES>
CN1CCN(CC1)C(=O)C(C(=O)NCCc1c[nH]c2ccc(F)cc12)c1c[nH]c2ncccc12

$$$$

  CDD

  0  0  0  0  0  0            999 V2000
M  END
> <Molecule Name>
CVD-0002026

> <SMILES>
CC(=O)NC(Cc1c[nH]c2ccc(F)cc12)N1CCN(CC1)C(=O)Cc1c[nH]c2ncccc12

$$$$

  CDD

  0  0  0  0  0  0            999 V2000
M  END
> <Molecule Name>
CVD-0002025

> <SMILES>
CN1CCN(CC1)C(=O)Cc1c[nH]c2nc(ccc12)C(=O)NCCc1c[nH]c2ccc(F)cc12

$$$$

  CDD

  0  0  0  0  0  0            999 V2000
M  END
> <Molecule Name>
CVD-0002024

> <SMILES>
CN1CCN(CC1)C(=O)Cc1c[nH]c2ncc(cc12)C(=O)NCCc1c[nH]c2ccc(F)cc12

$$$$

  CDD

  0  0  0  0  0  0            999 V2000
M  END
> <Molecule Name>
CVD-0002023

> <SMILES>
CN1CCN(CC1)C(=O)Cc1c[nH]c2nccc(C(=O)NCCc3c[nH]c4ccc(F)cc34)c12

$$$$

  CDD

  0  0  0  0  0  0            999 V2000
M  END
> <Molecule Name>
CVD-0002022

> <SMILES>
CN1CCN(CC1)C(=O)Cc1c([nH]c2ncccc12)C(=O)NCCc1c[nH]c2ccc(F)cc12

$$$$

  CDD

  0  0  0  0  0  0            999 V2000
M  END
> <Molecule Name>
CVD-0002021

> <SMILES>
CC(=O)NCCc1c[nH]c2cc(N3CCN(CC3)C(=O)Cc3c[nH]c4ncccc34)c(F)cc12

$$$$

  CDD

  0  0  0  0  0  0            999 V2000
M  END
> <Molecule Name>
CVD-0002020

> <SMILES>
CC(=O)NCCc1c[nH]c2c(cc(F)cc12)N1CCN(CC1)C(=O)Cc1c[nH]c2ncccc12

$$$$

  CDD

  0  0  0  0  0  0            999 V2000
M  END
> <Molecule Name>
CVD-0002019

> <SMILES>
CC(=O)NCCc1c[nH]c2ccc(F)c(N3CCN(CC3)C(=O)Cc3c[nH]c4ncccc34)c12

$$$$

  CDD

  0  0  0  0  0  0            999 V2000
M  END
> <Molecule Name>
CVD-0002018

> <SMILES>
CC(=O)NCCc1c([nH]c2ccc(F)cc12)N1CCN(CC1)C(=O)Cc1c[nH]c2ncccc12

$$$$

  CDD

  0  0  0  0  0  0            999 V2000
M  END
> <Molecule Name>
CVD-0002017

> <SMILES>
CC(=O)NCC(N1CCN(CC1)C(=O)Cc1c[nH]c2ncccc12)c1c[nH]c2ccc(F)cc12

$$$$

  CDD

  0  0  0  0  0  0            999 V2000
M  END
> <Molecule Name>
CVD-0002016

> <SMILES>
C[C@H](C(O)=O)c1ccc2c(c1)[nH]c1ccc(Cl)nc21

$$$$

  CDD

  0  0  0  0  0  0            999 V2000
M  END
> <Molecule Name>
CVD-0002015

> <SMILES>
C[C@H](C(O)=O)c1ccc2c(c1)[nH]c1ncc(Cl)cc21

$$$$

  CDD

  0  0  0  0  0  0            999 V2000
M  END
> <Molecule Name>
CVD-0002014

> <SMILES>
C[C@H](C(O)=O)c1ccc2c(c1)[nH]c1cnc(Cl)cc21

$$$$

  CDD

  0  0  0  0  0  0            999 V2000
M  END
> <Molecule Name>
CVD-0002013

> <SMILES>
C[C@H](C(O)=S)c1ccc2c(c1)[nH]c1ccc(Cl)cc21

$$$$

  CDD

  0  0  0  0  0  0            999 V2000
M  END
> <Molecule Name>
CVD-0002012

> <SMILES>
C[C@H](C(O)=O)c1cnc2c(c1)[nH]c1ncc(Cl)cc21

$$$$

  CDD

  0  0  0  0  0  0            999 V2000
M  END
> <Molecule Name>
CVD-0002011

> <SMILES>
C[C@H](C(O)=O)c1ccc2c(n1)[nH]c1ccc(Cl)nc21

$$$$

  CDD

  0  0  0  0  0  0            999 V2000
M  END
> <Molecule Name>
CVD-0002010

> <SMILES>
C[C@H](C(O)=O)c1ccc2c(n1)[nH]c1ncc(Cl)cc21

$$$$

  CDD

  0  0  0  0  0  0            999 V2000
M  END
> <Molecule Name>
CVD-0002009

> <SMILES>
C[C@H](C(O)=O)c1cnc2c(c1)[nH]c1ccc(Cl)nc21

$$$$

  CDD

  0  0  0  0  0  0            999 V2000
M  END
> <Molecule Name>
CVD-0002008

> <SMILES>
C[C@H](C(O)=O)c1nnc2c(n1)[nH]c1ccc(Cl)cc21

$$$$

  CDD

  0  0  0  0  0  0            999 V2000
M  END
> <Molecule Name>
CVD-0002007

> <SMILES>
C[C@H](C(O)=O)c1cc2[nH]c3ccc(Cl)cc3c2nn1

$$$$

  CDD

  0  0  0  0  0  0            999 V2000
M  END
> <Molecule Name>
CVD-0002006

> <SMILES>
C[C@H](C(O)=O)c1ncc2c(n1)[nH]c1ccc(Cl)cc21

$$$$

  CDD

  0  0  0  0  0  0            999 V2000
M  END
> <Molecule Name>
CVD-0002005

> <SMILES>
C[C@H](C(O)=O)c1cnc2c(n1)[nH]c1ccc(Cl)cc21

$$$$

  CDD

  0  0  0  0  0  0            999 V2000
M  END
> <Molecule Name>
CVD-0002004

> <SMILES>
C[C@H](C(O)=O)c1ccc2c(c1)[nH]c1nnc(Cl)nc21

$$$$

  CDD

  0  0  0  0  0  0            999 V2000
M  END
> <Molecule Name>
CVD-0002003

> <SMILES>
C[C@H](C(O)=O)c1ccc2c(c1)[nH]c1ccc(Cl)cc21

$$$$

  CDD

  0  0  0  0  0  0            999 V2000
M  END
> <Molecule Name>
CVD-0002002

> <SMILES>
C[C@H](C(O)=O)c1ccc2c(c1)[nH]c1ncc(Cl)nc21

$$$$

  CDD

  0  0  0  0  0  0            999 V2000
M  END
> <Molecule Name>
CVD-0002001

> <SMILES>
C[C@H](C(O)=O)c1ccc2c(c1)[nH]c1cnc(Cl)nc21

$$$$

  CDD

  0  0  0  0  0  0            999 V2000
M  END
> <Molecule Name>
CVD-0002000

> <SMILES>
C[C@H](C(O)=O)c1ccc2c(c1)[nH]c1nnc(Cl)cc21

$$$$

  CDD

  0  0  0  0  0  0            999 V2000
M  END
> <Molecule Name>
CVD-0001999

> <SMILES>
N[C@H](C(O)=O)c1ccc2c(c1)[nH]c1ccc(Cl)cc21

$$$$

  CDD

  0  0  0  0  0  0            999 V2000
M  END
> <Molecule Name>
CVD-0001998

> <SMILES>
C[O+]C(=O)[C@@H](C)c1ccc2c(c1)[nH]c1ccc(Cl)cc21

$$$$

  CDD

  0  0  0  0  0  0            999 V2000
M  END
> <Molecule Name>
CVD-0001997

> <SMILES>
COC(=O)[C@@H](C)c1ccc2c(c1)[nH]c1ccc(Cl)cc21

$$$$

  CDD

  0  0  0  0  0  0            999 V2000
M  END
> <Molecule Name>
CVD-0001996

> <SMILES>
CC(C)(C(O)=O)c1ccc2c(c1)[nH]c1ccc(Cl)cc21

$$$$

  CDD

  0  0  0  0  0  0            999 V2000
M  END
> <Molecule Name>
CVD-0001995

> <SMILES>
C[C@H](C(O)=O)c1cc2[nH]c3ccc(Cl)cc3c2cc1C

$$$$

  CDD

  0  0  0  0  0  0            999 V2000
M  END
> <Molecule Name>
CVD-0001994

> <SMILES>
C[C@H](C(O)=O)c1cc(C)c2c(c1)[nH]c1ccc(Cl)cc21

$$$$

  CDD

  0  0  0  0  0  0            999 V2000
M  END
> <Molecule Name>
CVD-0001993

> <SMILES>
C[C@H](C(O)=O)c1ccc2c([nH]c3ccc(Cl)cc23)c1C

$$$$

  CDD

  0  0  0  0  0  0            999 V2000
M  END
> <Molecule Name>
CVD-0001992

> <SMILES>
C[C@H](C(O)=O)c1ccc-2c(Cc3ccc(Cl)cc-23)c1

$$$$

  CDD

  0  0  0  0  0  0            999 V2000
M  END
> <Molecule Name>
CVD-0001991

> <SMILES>
C[C@H](C(O)=O)c1ccc2c(c1)n(C)c1ccc(Cl)cc21

$$$$

  CDD

  0  0  0  0  0  0            999 V2000
M  END
> <Molecule Name>
CVD-0001990

> <SMILES>
C[C@H](C(O)=O)c1ccc2c(c1)[nH]c1ccc(Cl)c(C)c21

$$$$

  CDD

  0  0  0  0  0  0            999 V2000
M  END
> <Molecule Name>
CVD-0001989

> <SMILES>
C[C@H](C(O)=O)c1ccc2c(c1)[nH]c1c(C)cc(Cl)cc21

$$$$

  CDD

  0  0  0  0  0  0            999 V2000
M  END
> <Molecule Name>
CVD-0001988

> <SMILES>
C[C@H](C(O)=O)c1ccc2c(c1)[nH]c1cc(C)c(Cl)cc21

$$$$

  CDD

  0  0  0  0  0  0            999 V2000
M  END
> <Molecule Name>
CVD-0001987

> <SMILES>
C[C@H](C(S)=O)c1ccc2c(c1)[nH]c1ccc(Cl)cc21

$$$$

  CDD

  0  0  0  0  0  0            999 V2000
M  END
> <Molecule Name>
CVD-0001986

> <SMILES>
C[C@H](C([O])=O)c1ccc2c(c1)[nH]c1ccc(Cl)cc21

$$$$

  CDD

  0  0  0  0  0  0            999 V2000
M  END
> <Molecule Name>
CVD-0001985

> <SMILES>
CN(C(O)=O)c1ccc2c(c1)[nH]c1ccc(Cl)cc21

$$$$

  CDD

  0  0  0  0  0  0            999 V2000
M  END
> <Molecule Name>
CVD-0001984

> <SMILES>
C[C@H](C(O)=O)c1cnc2c(c1)[nH]c1ccc(Cl)cc21

$$$$

  CDD

  0  0  0  0  0  0            999 V2000
M  END
> <Molecule Name>
CVD-0001983

> <SMILES>
C[C@H](C(O)=O)c1cc2[nH]c3ccc(Cl)cc3c2cn1

$$$$

  CDD

  0  0  0  0  0  0            999 V2000
M  END
> <Molecule Name>
CVD-0001982

> <SMILES>
C[C@H](C(O)=O)c1ccc2c(n1)[nH]c1ccc(Cl)cc21

$$$$

  CDD

  0  0  0  0  0  0            999 V2000
M  END
> <Molecule Name>
CVD-0001981

> <SMILES>
C[C@H](C(O)=O)c1ccc2c(c1)[nH]c1ccc(F)cc21

$$$$

  CDD

  0  0  0  0  0  0            999 V2000
M  END
> <Molecule Name>
CVD-0001980

> <SMILES>
CC1CCC(=C(C)C)C(=O)C1

$$$$

  CDD

  0  0  0  0  0  0            999 V2000
M  END
> <Molecule Name>
CVD-0001979

> <SMILES>
CC1CCc2c(C)coc2C1

$$$$

  CDD

  0  0  0  0  0  0            999 V2000
M  END
> <Molecule Name>
CVD-0001978

> <SMILES>
CC(C)C1CCC(C)CC1=O

$$$$

  CDD

  0  0  0  0  0  0            999 V2000
M  END
> <Molecule Name>
CVD-0001977

> <SMILES>
CC(C)C1CCC(C)CC1OC(C)=O

$$$$

  CDD

  0  0  0  0  0  0            999 V2000
M  END
> <Molecule Name>
CVD-0001976

> <SMILES>
CC(C)C1CCC(C)CC1O

$$$$

  CDD

  0  0  0  0  0  0            999 V2000
M  END
> <Molecule Name>
CVD-0001975

> <SMILES>
CC1COC11CCC(C)CC1

$$$$

  CDD

  0  0  0  0  0  0            999 V2000
M  END
> <Molecule Name>
CVD-0001974

> <SMILES>
CCCCCCCOP(S)(=S)OCCCCCCC

$$$$

  CDD

  0  0  0  0  0  0            999 V2000
M  END
> <Molecule Name>
CVD-0001973

> <SMILES>
Oc1cc(Cl)ccc1Oc1ccc(Cl)cc1Cl

$$$$

  CDD

  0  0  0  0  0  0            999 V2000
M  END
> <Molecule Name>
CVD-0001972

> <SMILES>
Clc1ccc(NC(=O)Nc2ccc(Cl)c(Cl)c2)cc1

$$$$

  CDD

  0  0  0  0  0  0            999 V2000
M  END
> <Molecule Name>
CVD-0001971

> <SMILES>
Clc1ccc(NC(=N)NC(=N)NCCCCCCNC(=N)NC(=N)Nc2ccc(Cl)cc2)cc1

$$$$

  CDD

  0  0  0  0  0  0            999 V2000
M  END
> <Molecule Name>
CVD-0001970

> <SMILES>
Cc1cc(O)cc(C)c1Cl

$$$$

  CDD

  0  0  0  0  0  0            999 V2000
M  END
> <Molecule Name>
CVD-0001969

> <SMILES>
CNCc1cc(-c2ccccc2F)n(CC(N)c2ncc(C)c(C=O)n2)c1

$$$$

  CDD

  0  0  0  0  0  0            999 V2000
M  END
> <Molecule Name>
CVD-0001968

> <SMILES>
CNCc1cc(-c2ccccc2F)n(Cc2ccsc2)c1

$$$$

  CDD

  0  0  0  0  0  0            999 V2000
M  END
> <Molecule Name>
CVD-0001967

> <SMILES>
CNCc1cc(-c2ccccc2F)n(c1)C(C)NC

$$$$

  CDD

  0  0  0  0  0  0            999 V2000
M  END
> <Molecule Name>
CVD-0001966

> <SMILES>
CNCc1cc(-c2ccccc2F)n(Cn2ccnc2)c1

$$$$

  CDD

  0  0  0  0  0  0            999 V2000
M  END
> <Molecule Name>
CVD-0001965

> <SMILES>
CNCc1cc(-c2ccccc2F)n(c1)C(CC(=O)OCCOC(C)=O)c1cccnc1

$$$$

  CDD

  0  0  0  0  0  0            999 V2000
M  END
> <Molecule Name>
CVD-0001964

> <SMILES>
CNCc1cc(-c2ccccc2F)n(c1)C(CCNC(=O)OC)c1cccnc1

$$$$

  CDD

  0  0  0  0  0  0            999 V2000
M  END
> <Molecule Name>
CVD-0001963

> <SMILES>
CNCc1cc(-c2ccc(CCNC(=O)CNC(=O)c3cnc(C)s3)cc2F)n(c1)S(=O)(=O)c1cccnc1

$$$$

  CDD

  0  0  0  0  0  0            999 V2000
M  END
> <Molecule Name>
CVD-0001962

> <SMILES>
CNCc1cc(-c2ccc(cc2F)-c2ccc(cc2)-n2cnn(CS(C)(=O)=O)c2=O)n(c1)S(=O)(=O)c1cccnc1

$$$$

  CDD

  0  0  0  0  0  0            999 V2000
M  END
> <Molecule Name>
CVD-0001961

> <SMILES>
CNCc1cc(-c2ccc(nc2)-c2ccccc2)n(c1)S(=O)(=O)c1cccnc1

$$$$

  CDD

  0  0  0  0  0  0            999 V2000
M  END
> <Molecule Name>
CVD-0001960

> <SMILES>
CNCc1cc(-c2ccc(cc2C)-c2ccccc2)n(c1)S(=O)(=O)c1cccnc1

$$$$

  CDD

  0  0  0  0  0  0            999 V2000
M  END
> <Molecule Name>
CVD-0001959

> <SMILES>
CNCc1cc(c(-c2ccccc2F)n1-c1c(O)cc(C(O)=O)c(O)c1I)S(=O)(=O)c1cccnc1

$$$$

  CDD

  0  0  0  0  0  0            999 V2000
M  END
> <Molecule Name>
CVD-0001958

> <SMILES>
CNCc1cc(c(-c2ccccc2F)n1-c1cc[nH]n1)S(=O)(=O)c1cccnc1

$$$$

  CDD

  0  0  0  0  0  0            999 V2000
M  END
> <Molecule Name>
CVD-0001957

> <SMILES>
CNCc1cc(-c2ccccc2F)n(c1)C(C(=O)NC)c1cccnc1

$$$$

  CDD

  0  0  0  0  0  0            999 V2000
M  END
> <Molecule Name>
CVD-0001956

> <SMILES>
CNCc1cc(c([nH]1)S(=O)(=O)c1cccnc1)-c1ccccc1F

$$$$

  CDD

  0  0  0  0  0  0            999 V2000
M  END
> <Molecule Name>
CVD-0001955

> <SMILES>
CNCc1cc(-c2ccccc2F)n(c1)C(=O)CCO

$$$$

  CDD

  0  0  0  0  0  0            999 V2000
M  END
> <Molecule Name>
CVD-0001954

> <SMILES>
CNCc1cc(-c2ccccc2F)n(Cc2c[nH]c3c(cnn3c2=O)C#N)c1

$$$$

  CDD

  0  0  0  0  0  0            999 V2000
M  END
> <Molecule Name>
CVD-0001953

> <SMILES>
CNCc1cc(-c2ccccc2F)n(Cc2ccccc2C)c1

$$$$

  CDD

  0  0  0  0  0  0            999 V2000
M  END
> <Molecule Name>
CVD-0001952

> <SMILES>
CNCc1cc(-c2ccccc2F)n(CCCNC(=O)c2ccccc2)c1

$$$$

  CDD

  0  0  0  0  0  0            999 V2000
M  END
> <Molecule Name>
CVD-0001951

> <SMILES>
CCCn1cc(CNC)cc1-c1ccccc1F

$$$$

  CDD

  0  0  0  0  0  0            999 V2000
M  END
> <Molecule Name>
CVD-0001950

> <SMILES>
CNCc1cc(-c2ccccc2F)n(CC(C)O)c1

$$$$

  CDD

  0  0  0  0  0  0            999 V2000
M  END
> <Molecule Name>
CVD-0001949

> <SMILES>
CCC(=O)OC(C)n1cc(CNC)cc1-c1ccccc1F

$$$$

  CDD

  0  0  0  0  0  0            999 V2000
M  END
> <Molecule Name>
CVD-0001948

> <SMILES>
CNCc1cc(-c2ccccc2F)n(CCC2CC2C)c1

$$$$

  CDD

  0  0  0  0  0  0            999 V2000
M  END
> <Molecule Name>
CVD-0001947

> <SMILES>
CC\C=C/Cn1cc(CNC)cc1-c1ccccc1F

$$$$

  CDD

  0  0  0  0  0  0            999 V2000
M  END
> <Molecule Name>
CVD-0001946

> <SMILES>
CNCc1cc(-c2ccccc2F)n(c1)C(C)NC(=O)CCCNC(C)=O

$$$$

  CDD

  0  0  0  0  0  0            999 V2000
M  END
> <Molecule Name>
CVD-0001945

> <SMILES>
CNCc1cc(-c2ccccc2F)n(c1)C(=O)NC1CCC(=CC1OC)C(O)=O

$$$$

  CDD

  0  0  0  0  0  0            999 V2000
M  END
> <Molecule Name>
CVD-0001944

> <SMILES>
CNCc1cc(-c2ccccc2F)n(COC2CCC(CC2)OC=O)c1

$$$$

  CDD

  0  0  0  0  0  0            999 V2000
M  END
> <Molecule Name>
CVD-0001943

> <SMILES>
CNCc1cc(-c2ccccc2F)n(c1)C(c1c[nH]nn1)c1ccccc1

$$$$

  CDD

  0  0  0  0  0  0            999 V2000
M  END
> <Molecule Name>
CVD-0001942

> <SMILES>
CNCc1cc(-c2ccccc2F)n(c1)C1CCN(C1)C(N)=O

$$$$

  CDD

  0  0  0  0  0  0            999 V2000
M  END
> <Molecule Name>
CVD-0001941

> <SMILES>
CNCc1cc(-c2ccccc2F)n(c1)C(C)c1ccccc1

$$$$

  CDD

  0  0  0  0  0  0            999 V2000
M  END
> <Molecule Name>
CVD-0001940

> <SMILES>
CNCc1cc(-c2ccccc2F)n(Cc2ccccc2)c1

$$$$

  CDD

  0  0  0  0  0  0            999 V2000
M  END
> <Molecule Name>
CVD-0001939

> <SMILES>
CNCc1cc(-c2ccccc2F)n(c1)C(O)c1ccccc1

$$$$

  CDD

  0  0  0  0  0  0            999 V2000
M  END
> <Molecule Name>
CVD-0001938

> <SMILES>
CNCc1cc(-c2ccccc2F)n(CNC)c1

$$$$

  CDD

  0  0  0  0  0  0            999 V2000
M  END
> <Molecule Name>
CVD-0001937

> <SMILES>
CNCc1cc(-c2ccccc2F)n(CC\C=C\COC=O)c1

$$$$

  CDD

  0  0  0  0  0  0            999 V2000
M  END
> <Molecule Name>
CVD-0001936

> <SMILES>
CS(=O)(=O)NCCOc1cc2ccncc2cc1Oc1ccccc1F

$$$$

  CDD

  0  0  0  0  0  0            999 V2000
M  END
> <Molecule Name>
CVD-0001935

> <SMILES>
NS(=O)(=O)c1ccc(Br)c(c1)S(=O)(=O)NCCc1ccccc1

$$$$

  CDD

  0  0  0  0  0  0            999 V2000
M  END
> <Molecule Name>
CVD-0001934

> <SMILES>
NS(=O)(=O)c1ccc(Br)cc1S(=O)(=O)NCCc1ccccc1

$$$$

  CDD

  0  0  0  0  0  0            999 V2000
M  END
> <Molecule Name>
CVD-0001933

> <SMILES>
CNCC(C)C1Cc2c(O)c(O)ccc2C(CN)O1

$$$$

  CDD

  0  0  0  0  0  0            999 V2000
M  END
> <Molecule Name>
CVD-0001932

> <SMILES>
CC(CC1CCCCC1)C1Cc2c(O)c(O)ccc2C(CN)O1

$$$$

  CDD

  0  0  0  0  0  0            999 V2000
M  END
> <Molecule Name>
CVD-0001931

> <SMILES>
NCC1OC(Cc2c(O)c(O)ccc12)C1CCC(CCC=O)CC1

$$$$

  CDD

  0  0  0  0  0  0            999 V2000
M  END
> <Molecule Name>
CVD-0001930

> <SMILES>
NCC1OC(Cc2c(O)c(O)ccc12)C1CCCC(N)C1

$$$$

  CDD

  0  0  0  0  0  0            999 V2000
M  END
> <Molecule Name>
CVD-0001929

> <SMILES>
CC1CC(CCN1C)C1Cc2c(O)c(O)ccc2C(CN)O1

$$$$

  CDD

  0  0  0  0  0  0            999 V2000
M  END
> <Molecule Name>
CVD-0001928

> <SMILES>
CCCNCCCC1Cc2c(O)c(O)ccc2C(CN)O1

$$$$

  CDD

  0  0  0  0  0  0            999 V2000
M  END
> <Molecule Name>
CVD-0001927

> <SMILES>
NCC1OC(Cc2c(O)c(O)ccc12)C1CCCC(C1)NCCO

$$$$

  CDD

  0  0  0  0  0  0            999 V2000
M  END
> <Molecule Name>
CVD-0001926

> <SMILES>
CNC1CCC(CC1)C1Cc2c(O)c(O)ccc2C(CN)O1

$$$$

  CDD

  0  0  0  0  0  0            999 V2000
M  END
> <Molecule Name>
CVD-0001925

> <SMILES>
NCC1OC(CCCC2CCCCC2)Cc2c(O)c(O)ccc12

$$$$

  CDD

  0  0  0  0  0  0            999 V2000
M  END
> <Molecule Name>
CVD-0001924

> <SMILES>
NCC1OC(Cc2c(O)c(O)ccc12)C1CCCC(CCC=O)C1

$$$$

  CDD

  0  0  0  0  0  0            999 V2000
M  END
> <Molecule Name>
CVD-0001923

> <SMILES>
CNC1CCCC(C1)C1Cc2c(O)c(O)ccc2C(CN)O1

$$$$

  CDD

  0  0  0  0  0  0            999 V2000
M  END
> <Molecule Name>
CVD-0001922

> <SMILES>
CN(C)C(=O)C1CCN(CC1)C(=O)c1cccc(Cc2ccc3[C@@H](N)COCc3n2)c1

$$$$

  CDD

  0  0  0  0  0  0            999 V2000
M  END
> <Molecule Name>
CVD-0001921

> <SMILES>
Clc1cccc(NC(=O)N2CCN(CC2)C(=O)NCC(=O)N2CCOCC2)c1

$$$$

  CDD

  0  0  0  0  0  0            999 V2000
M  END
> <Molecule Name>
CVD-0001920

> <SMILES>
O=C(C[C@@H]1CCN(Nc2ccccc2)[C@@H](C1)c1ccccc1)[C@@H]1CCC(=O)NC1

$$$$

  CDD

  0  0  0  0  0  0            999 V2000
M  END
> <Molecule Name>
CVD-0001919

> <SMILES>
COc1cccc(CNC(=O)N2CCN(CC2)C(=O)N2CCCCC2)c1

$$$$

  CDD

  0  0  0  0  0  0            999 V2000
M  END
> <Molecule Name>
CVD-0001918

> <SMILES>
O=c1cc(cco1)S(=O)(=O)c1ccc(N2CCO[C@@H]3CCC[C@@H]23)c(c1)C#N

$$$$

  CDD

  0  0  0  0  0  0            999 V2000
M  END
> <Molecule Name>
CVD-0001917

> <SMILES>
CC(=O)Nc1cnc(NN2CCC(CC2)c2cccc(C)c2Cl)nc1

$$$$

  CDD

  0  0  0  0  0  0            999 V2000
M  END
> <Molecule Name>
CVD-0001916

> <SMILES>
Brc1ccc(NC(=O)C(N(C(=O)C=C)c2ccc3ncsc3c2)c2cccnc2)cc1

$$$$

  CDD

  0  0  0  0  0  0            999 V2000
M  END
> <Molecule Name>
CVD-0001915

> <SMILES>
COC(C)c1ccc(cc1)N(C(C(=O)Nc1ccc(OC)cc1C)c1cccnc1)C(=O)C=C

$$$$

  CDD

  0  0  0  0  0  0            999 V2000
M  END
> <Molecule Name>
CVD-0001914

> <SMILES>
CC(C)(C)NC(=O)C(N(C(=O)C=C)c1ccc(cc1)S(F)(F)(F)(F)F)c1cccnc1

$$$$

  CDD

  0  0  0  0  0  0            999 V2000
M  END
> <Molecule Name>
CVD-0001913

> <SMILES>
CSc1ccc(cc1)N(C(C(=O)NC(C)(C)C)c1cccnc1)C(=O)C=C

$$$$

  CDD

  0  0  0  0  0  0            999 V2000
M  END
> <Molecule Name>
CVD-0001912

> <SMILES>
CCC(=O)O[C@@H](OP(=O)(CCCCc1ccccc1)CC(=O)N1C[C@@H](C[C@H]1C(O)=O)C1CCCCC1)C(C)C

$$$$

  CDD

  0  0  0  0  0  0            999 V2000
M  END
> <Molecule Name>
CVD-0001911

> <SMILES>
CCc1cccc(C)c1NC(=O)C(N(C(=O)C=C)c1ccc2ncsc2c1)c1cccnc1

$$$$

  CDD

  0  0  0  0  0  0            999 V2000
M  END
> <Molecule Name>
CVD-0001910

> <SMILES>
COc1ccc(NC(=O)C(N(C(=O)C=C)c2ccc(SC)cc2)c2cccnc2)cc1

$$$$

  CDD

  0  0  0  0  0  0            999 V2000
M  END
> <Molecule Name>
CVD-0001909

> <SMILES>
CCc1cccc(C)c1NC(=O)C(N(C(=O)C=C)c1cc(on1)C(C)(C)C)c1cccnc1

$$$$

  CDD

  0  0  0  0  0  0            999 V2000
M  END
> <Molecule Name>
CVD-0001908

> <SMILES>
CCc1cccc(C)c1NC(=O)C(N(C(=O)C=C)c1ccc(cc1)C(C)OC)c1cccnc1

$$$$

  CDD

  0  0  0  0  0  0            999 V2000
M  END
> <Molecule Name>
CVD-0001907

> <SMILES>
Clc1ccc(NC(=O)C(N(C(=O)C=C)c2ccc3ncsc3c2)c2cccnc2)cc1

$$$$

  CDD

  0  0  0  0  0  0            999 V2000
M  END
> <Molecule Name>
CVD-0001906

> <SMILES>
COc1ccc(NC(=O)C(N(C(=O)C=C)c2cc(on2)C(C)(C)C)c2cccnc2)c(C)c1

$$$$

  CDD

  0  0  0  0  0  0            999 V2000
M  END
> <Molecule Name>
CVD-0001905

> <SMILES>
CCc1cccc(C)c1NC(=O)C(N(C(=O)C=C)c1ccc(N(C)C)c(C)c1)c1cccnc1

$$$$

  CDD

  0  0  0  0  0  0            999 V2000
M  END
> <Molecule Name>
CVD-0001904

> <SMILES>
FC(F)(F)c1ccc(cc1)N(C(C(=O)Nc1ccccc1Br)c1cccnc1)C(=O)C=C

$$$$

  CDD

  0  0  0  0  0  0            999 V2000
M  END
> <Molecule Name>
CVD-0001903

> <SMILES>
COc1ccc(NC(=O)C(N(C(=O)C=C)c2ccc(SC)cc2)c2cccnc2)c(C)c1

$$$$

  CDD

  0  0  0  0  0  0            999 V2000
M  END
> <Molecule Name>
CVD-0001902

> <SMILES>
CCc1cccc(C)c1NC(=O)C(N(C(=O)C=C)c1ccc(cc1)C(F)(F)F)c1cccnc1

$$$$

  CDD

  0  0  0  0  0  0            999 V2000
M  END
> <Molecule Name>
CVD-0001901

> <SMILES>
CCc1cccc(NC(=O)C(N(C(=O)C=C)c2ccc3ncsc3c2)c2cccnc2)c1

$$$$

  CDD

  0  0  0  0  0  0            999 V2000
M  END
> <Molecule Name>
CVD-0001900

> <SMILES>
COc1ccc(NC(=O)C(N(C(=O)C=C)c2ccc(cc2)C(F)(F)F)c2cccnc2)c(C)c1

$$$$

  CDD

  0  0  0  0  0  0            999 V2000
M  END
> <Molecule Name>
CVD-0001899

> <SMILES>
CCC(C)(C)c1ccc(cc1)N(C(C(=O)Nc1cccc(F)c1C)c1cccnc1)C(=O)C=C

$$$$

  CDD

  0  0  0  0  0  0            999 V2000
M  END
> <Molecule Name>
CVD-0001898

> <SMILES>
CCC(C)(C)c1ccc(cc1)N(C(C(=O)Nc1ccc(Br)cc1)c1cccnc1)C(=O)C=C

$$$$

  CDD

  0  0  0  0  0  0            999 V2000
M  END
> <Molecule Name>
CVD-0001897

> <SMILES>
CCC(C)(C)c1ccc(cc1)N(C(C(=O)Nc1ccc(Cl)cc1)c1cccnc1)C(=O)C=C

$$$$

  CDD

  0  0  0  0  0  0            999 V2000
M  END
> <Molecule Name>
CVD-0001896

> <SMILES>
CC(C)c1ccc(cn1)N(C(C(=O)NC(C)(C)C)c1cccnc1)C(=O)C=C

$$$$

  CDD

  0  0  0  0  0  0            999 V2000
M  END
> <Molecule Name>
CVD-0001895

> <SMILES>
CC(C)(C)NC(=O)C(N(C(=O)C=C)c1ccc2ncsc2c1)c1cccnc1

$$$$

  CDD

  0  0  0  0  0  0            999 V2000
M  END
> <Molecule Name>
CVD-0001894

> <SMILES>
COc1ccc(NC(=O)C(N(C(=O)C=C)c2ccc(N(C)C)c(C)c2)c2cccnc2)c(C)c1

$$$$

  CDD

  0  0  0  0  0  0            999 V2000
M  END
> <Molecule Name>
CVD-0001893

> <SMILES>
CCc1cccc(C)c1NC(=O)C(N(C(=O)C=C)c1ccc(cc1)S(F)(F)(F)(F)F)c1cccnc1

$$$$

  CDD

  0  0  0  0  0  0            999 V2000
M  END
> <Molecule Name>
CVD-0001892

> <SMILES>
COc1ccc(NC(=O)C(N(C(=O)C=C)c2ccc(cc2)S(F)(F)(F)(F)F)c2cccnc2)c(C)c1

$$$$

  CDD

  0  0  0  0  0  0            999 V2000
M  END
> <Molecule Name>
CVD-0001891

> <SMILES>
COc1ccc(NC(=O)C(N(C(=O)C=C)c2ccc(cc2)C(F)(F)F)c2cccnc2)cc1

$$$$

  CDD

  0  0  0  0  0  0            999 V2000
M  END
> <Molecule Name>
CVD-0001890

> <SMILES>
COc1ccc(NC(=O)C(N(C(=O)C=C)c2ccc(nc2)C(C)C)c2cccnc2)c(C)c1

$$$$

  CDD

  0  0  0  0  0  0            999 V2000
M  END
> <Molecule Name>
CVD-0001889

> <SMILES>
COc1ccc(NC(=O)C(N(C(=O)C=C)c2ccc3ncsc3c2)c2cccnc2)cc1

$$$$

  CDD

  0  0  0  0  0  0            999 V2000
M  END
> <Molecule Name>
CVD-0001888

> <SMILES>
CSc1ccc(cc1)N(C(C(=O)Nc1ccc(Cl)cc1)c1cccnc1)C(=O)C=C

$$$$

  CDD

  0  0  0  0  0  0            999 V2000
M  END
> <Molecule Name>
CVD-0001887

> <SMILES>
CC(C)(C)NC(=O)C(N(C(=O)C=C)c1cc(on1)C(C)(C)C)c1cccnc1

$$$$

  CDD

  0  0  0  0  0  0            999 V2000
M  END
> <Molecule Name>
CVD-0001886

> <SMILES>
COC(C)c1ccc(cc1)N(C(C(=O)Nc1ccc(Cl)cc1)c1cccnc1)C(=O)C=C

$$$$

  CDD

  0  0  0  0  0  0            999 V2000
M  END
> <Molecule Name>
CVD-0001885

> <SMILES>
CC(C)(C)c1cc([nH]n1)N(C(C(=O)Nc1ccc(Cl)cc1)c1cccnc1)C(=O)C=C

$$$$

  CDD

  0  0  0  0  0  0            999 V2000
M  END
> <Molecule Name>
CVD-0001884

> <SMILES>
CCc1cccc(C)c1NC(=O)C(N(C(=O)C=C)c1cc(n[nH]1)C(C)(C)C)c1cccnc1

$$$$

  CDD

  0  0  0  0  0  0            999 V2000
M  END
> <Molecule Name>
CVD-0001883

> <SMILES>
CCc1cccc(C)c1NC(=O)C(N(C(=O)C=C)c1ccc(SC)cc1)c1cccnc1

$$$$

  CDD

  0  0  0  0  0  0            999 V2000
M  END
> <Molecule Name>
CVD-0001882

> <SMILES>
COC(C)c1ccc(cc1)N(C(C(=O)Nc1ccccc1Br)c1cccnc1)C(=O)C=C

$$$$

  CDD

  0  0  0  0  0  0            999 V2000
M  END
> <Molecule Name>
CVD-0001881

> <SMILES>
CCc1cccc(C)c1NC(=O)C(N(C(=O)C=C)c1ccc(nc1)C(C)C)c1cccnc1

$$$$

  CDD

  0  0  0  0  0  0            999 V2000
M  END
> <Molecule Name>
CVD-0001880

> <SMILES>
CCc1cccc(NC(=O)C(N(C(=O)C=C)c2ccc(cc2)C(C)OC)c2cccnc2)c1

$$$$

  CDD

  0  0  0  0  0  0            999 V2000
M  END
> <Molecule Name>
CVD-0001879

> <SMILES>
CCc1cccc(NC(=O)C(N(C(=O)C=C)c2ccc(N(C)C)c(C)c2)c2cccnc2)c1

$$$$

  CDD

  0  0  0  0  0  0            999 V2000
M  END
> <Molecule Name>
CVD-0001878

> <SMILES>
CCc1cccc(NC(=O)C(N(C(=O)C=C)c2cc(on2)C(C)(C)C)c2cccnc2)c1

$$$$

  CDD

  0  0  0  0  0  0            999 V2000
M  END
> <Molecule Name>
CVD-0001877

> <SMILES>
CN(C)c1ccc(cc1C)N(C(C(=O)Nc1ccc(Br)cc1)c1cccnc1)C(=O)C=C

$$$$

  CDD

  0  0  0  0  0  0            999 V2000
M  END
> <Molecule Name>
CVD-0001876

> <SMILES>
CN(C)c1ccc(cc1C)N(C(C(=O)Nc1ccccc1Br)c1cccnc1)C(=O)C=C

$$$$

  CDD

  0  0  0  0  0  0            999 V2000
M  END
> <Molecule Name>
CVD-0001875

> <SMILES>
COc1ccc(NC(=O)C(N(C(=O)C=C)c2ccc(cc2)S(F)(F)(F)(F)F)c2cccnc2)cc1

$$$$

  CDD

  0  0  0  0  0  0            999 V2000
M  END
> <Molecule Name>
CVD-0001874

> <SMILES>
CN(C)c1ccc(cc1C)N(C(C(=O)Nc1ccc(Cl)cc1)c1cccnc1)C(=O)C=C

$$$$

  CDD

  0  0  0  0  0  0            999 V2000
M  END
> <Molecule Name>
CVD-0001873

> <SMILES>
COC(C)c1ccc(cc1)N(C(C(=O)NC(C)(C)C)c1cccnc1)C(=O)C=C

$$$$

  CDD

  0  0  0  0  0  0            999 V2000
M  END
> <Molecule Name>
CVD-0001872

> <SMILES>
COc1ccc(NC(=O)C(N(C(=O)C=C)c2ccc3ncsc3c2)c2cccnc2)c(C)c1

$$$$

  CDD

  0  0  0  0  0  0            999 V2000
M  END
> <Molecule Name>
CVD-0001871

> <SMILES>
CN(C)c1ccc(cc1C)N(C(C(=O)NC(C)(C)C)c1cccnc1)C(=O)C=C

$$$$

  CDD

  0  0  0  0  0  0            999 V2000
M  END
> <Molecule Name>
CVD-0001870

> <SMILES>
CC(C)(C)NC(=O)C(N(C(=O)C=C)c1ccc(cc1)C(C)(C)C)c1cccnc1

$$$$

  CDD

  0  0  0  0  0  0            999 V2000
M  END
> <Molecule Name>
CVD-0001869

> <SMILES>
ClCC(=O)N1CCN(Cc2ccsc2)CC1

$$$$

  CDD

  0  0  0  0  0  0            999 V2000
M  END
> <Molecule Name>
CVD-0001868

> <SMILES>
ClCC(=O)N1CCN(Cc2cccs2)CC1

$$$$

  CDD

  0  0  0  0  0  0            999 V2000
M  END
> <Molecule Name>
CVD-0001867

> <SMILES>
Fc1cccc(c1)S(=O)(=O)N1CCN(CC1)C(=O)CCl

$$$$

  CDD

  0  0  0  0  0  0            999 V2000
M  END
> <Molecule Name>
CVD-0001866

> <SMILES>
ClCC(=O)N1CCN(CC1)S(=O)(=O)c1cccs1

$$$$

  CDD

  0  0  0  0  0  0            999 V2000
M  END
> <Molecule Name>
CVD-0001865

> <SMILES>
Fc1cccc(F)c1S(=O)(=O)N1CCN(CC1)C(=O)CCl

$$$$

  CDD

  0  0  0  0  0  0            999 V2000
M  END
> <Molecule Name>
CVD-0001864

> <SMILES>
O=C(\C=C\C=C\c1ccc2OCOc2c1)N1CCCCC1

$$$$

  CDD

  0  0  0  0  0  0            999 V2000
M  END
> <Molecule Name>
CVD-0001863

> <SMILES>
COc1ccc(NC(=O)C(N(C(=O)C=C)c2ccc(N(C)C)c(C)c2)c2cccnc2)cc1

$$$$

  CDD

  0  0  0  0  0  0            999 V2000
M  END
> <Molecule Name>
CVD-0001862

> <SMILES>
ClCC(=O)Nc1cccc(c1)N1CCCC1=O

$$$$

  CDD

  0  0  0  0  0  0            999 V2000
M  END
> <Molecule Name>
CVD-0001861

> <SMILES>
Nc1cnc(OC(=O)N2CCN(CC2)C(=O)c2ccsc2)nc1

$$$$

  CDD

  0  0  0  0  0  0            999 V2000
M  END
> <Molecule Name>
CVD-0001860

> <SMILES>
COC(=O)c1ccc(cc1CN)S(N)(=O)=O

$$$$

  CDD

  0  0  0  0  0  0            999 V2000
M  END
> <Molecule Name>
CVD-0001859

> <SMILES>
COC(=O)c1ccc(cc1C)S(N)(=O)=O

$$$$

  CDD

  0  0  0  0  0  0            999 V2000
M  END
> <Molecule Name>
CVD-0001858

> <SMILES>
CCN(C[C@@H]1CC[C@@H](C1)C(N)=O)Cc1ccon1

$$$$

  CDD

  0  0  0  0  0  0            999 V2000
M  END
> <Molecule Name>
CVD-0001857

> <SMILES>
NC(=O)[C@H]1CC[C@@H](CN(Cc2ccoc2)C2CC2)C1

$$$$

  CDD

  0  0  0  0  0  0            999 V2000
M  END
> <Molecule Name>
CVD-0001856

> <SMILES>
CCNc1ncc(cc1Oc1ccccc1)C#N

$$$$

  CDD

  0  0  0  0  0  0            999 V2000
M  END
> <Molecule Name>
CVD-0001855

> <SMILES>
CNc1ncc(cc1Oc1ccccc1)C#N

$$$$

  CDD

  0  0  0  0  0  0            999 V2000
M  END
> <Molecule Name>
CVD-0001854

> <SMILES>
COc1ccc(cc1)S(N)(=O)=O

$$$$

  CDD

  0  0  0  0  0  0            999 V2000
M  END
> <Molecule Name>
CVD-0001853

> <SMILES>
CC[Si](C)(C)Oc1ccc(cc1)S(N)(=O)=O

$$$$

  CDD

  0  0  0  0  0  0            999 V2000
M  END
> <Molecule Name>
CVD-0001852

> <SMILES>
C[Si](C)(C)Oc1ccc(cc1)S(N)(=O)=O

$$$$

  CDD

  0  0  0  0  0  0            999 V2000
M  END
> <Molecule Name>
CVD-0001851

> <SMILES>
NC(=N)CC[C@H]1CC[C@@H]([C@@H]1c1ccsc1)C(N)=O

$$$$

  CDD

  0  0  0  0  0  0            999 V2000
M  END
> <Molecule Name>
CVD-0001850

> <SMILES>
CC(=O)C1CNC2CN(CC(N)=O)CC2C1

$$$$

  CDD

  0  0  0  0  0  0            999 V2000
M  END
> <Molecule Name>
CVD-0001849

> <SMILES>
CCN(CC)c1ccc(cc1)S(N)(=O)=O

$$$$

  CDD

  0  0  0  0  0  0            999 V2000
M  END
> <Molecule Name>
CVD-0001848

> <SMILES>
FC1CC(NC1=O)C1CC1C(=O)Nc1c[nH]c2ncncc12

$$$$

  CDD

  0  0  0  0  0  0            999 V2000
M  END
> <Molecule Name>
CVD-0001847

> <SMILES>
CC(=O)N(c1c[nH]c2ncncc12)c1c(ccnc1-c1cc(F)cs1)C(C)=O

$$$$

  CDD

  0  0  0  0  0  0            999 V2000
M  END
> <Molecule Name>
CVD-0001846

> <SMILES>
CC(=O)N(c1c[nH]c2ncncc12)c1c(ccnc1-c1cccc(Cl)c1)C(C)=O

$$$$

  CDD

  0  0  0  0  0  0            999 V2000
M  END
> <Molecule Name>
CVD-0001845

> <SMILES>
CC(=O)c1ccncc1N(C(=O)CCC1CC(F)C(=O)N1)c1c[nH]c2ncncc12

$$$$

  CDD

  0  0  0  0  0  0            999 V2000
M  END
> <Molecule Name>
CVD-0001844

> <SMILES>
FC1CC(CCC(=O)N(c2c[nH]c3ncncc23)c2cccnc2)NC1=O

$$$$

  CDD

  0  0  0  0  0  0            999 V2000
M  END
> <Molecule Name>
CVD-0001843

> <SMILES>
CC(=O)CC(C(=O)CCC1CC(F)C(=O)N1)c1c[nH]c2ncncc12

$$$$

  CDD

  0  0  0  0  0  0            999 V2000
M  END
> <Molecule Name>
CVD-0001842

> <SMILES>
FC1CC(CCC(=O)Cc2c[nH]c3ncncc23)NC1=O

$$$$

  CDD

  0  0  0  0  0  0            999 V2000
M  END
> <Molecule Name>
CVD-0001841

> <SMILES>
C[C@@H](OCc1ccccc1)[C@H](NC(C)=O)C(=O)Nc1ccsc1

$$$$

  CDD

  0  0  0  0  0  0            999 V2000
M  END
> <Molecule Name>
CVD-0001840

> <SMILES>
CSC(=O)[C@H](NCC(=O)CCc1ccccc1)[C@@H](C)O

$$$$

  CDD

  0  0  0  0  0  0            999 V2000
M  END
> <Molecule Name>
CVD-0001839

> <SMILES>
Cc1cc(CC2CN(Cc3ccc(s3)C#CC(C)(C)O)CC2O)on1

$$$$

  CDD

  0  0  0  0  0  0            999 V2000
M  END
> <Molecule Name>
CVD-0001838

> <SMILES>
Cn1cc(Nc2nnc(C3CCC(=O)N3)n2CCN2CCCC(C)(C)C2)cn1

$$$$

  CDD

  0  0  0  0  0  0            999 V2000
M  END
> <Molecule Name>
CVD-0001837

> <SMILES>
Clc1cnn(CCn2c(nnc2N2CCNC(=O)C2)C2CCC(=O)N2)c1

$$$$

  CDD

  0  0  0  0  0  0            999 V2000
M  END
> <Molecule Name>
CVD-0001836

> <SMILES>
OC1(Cn2c(nnc2-c2cc(Br)c[nH]2)N2CCCC2)CCCCCC1

$$$$

  CDD

  0  0  0  0  0  0            999 V2000
M  END
> <Molecule Name>
CVD-0001835

> <SMILES>
Cc1nc(CCn2c(nnc2N2CCOC(C)(C)C2)C2CCC(=O)N2)n[nH]1

$$$$

  CDD

  0  0  0  0  0  0            999 V2000
M  END
> <Molecule Name>
CVD-0001834

> <SMILES>
CC1CCN(C(CNc2nc(ns2)C2CCC2)C1)C(=O)c1cc[nH]n1

$$$$

  CDD

  0  0  0  0  0  0            999 V2000
M  END
> <Molecule Name>
CVD-0001833

> <SMILES>
Cn1cc(cn1)C1CN(CC1NC1CCNC1=O)C(=O)c1cscn1

$$$$

  CDD

  0  0  0  0  0  0            999 V2000
M  END
> <Molecule Name>
CVD-0001832

> <SMILES>
CC1CCCN(CC1)c1nnc(C2CCC(=O)N2)n1CC(=O)Nc1ccc(F)cc1

$$$$

  CDD

  0  0  0  0  0  0            999 V2000
M  END
> <Molecule Name>
CVD-0001831

> <SMILES>
OCC1CCN(CC1)c1nnc(-c2ccc[nH]2)n1CCCN1CCCCCC1=O

$$$$

  CDD

  0  0  0  0  0  0            999 V2000
M  END
> <Molecule Name>
CVD-0001830

> <SMILES>
OCC1CCN(CC1)c1nnc(C2CCC(=O)N2)n1CCSc1ccccc1

$$$$

  CDD

  0  0  0  0  0  0            999 V2000
M  END
> <Molecule Name>
CVD-0001829

> <SMILES>
Cc1nnc(Cn2c(nnc2N2CCNC(=O)C2)C2CCC(=O)N2)s1

$$$$

  CDD

  0  0  0  0  0  0            999 V2000
M  END
> <Molecule Name>
CVD-0001828

> <SMILES>
Cc1nc(Cn2c(nnc2N2CCNC(=O)C2)C2CCC(=O)N2)sc1C

$$$$

  CDD

  0  0  0  0  0  0            999 V2000
M  END
> <Molecule Name>
CVD-0001827

> <SMILES>
O=S(=O)(NC1CCCCCC1)c1ccsc1-c1nc(no1)C1CCCN1

$$$$

  CDD

  0  0  0  0  0  0            999 V2000
M  END
> <Molecule Name>
CVD-0001826

> <SMILES>
O=C(NCCn1c(nnc1N1CCCC1)C1CCC(=O)N1)c1cccs1

$$$$

  CDD

  0  0  0  0  0  0            999 V2000
M  END
> <Molecule Name>
CVD-0001825

> <SMILES>
Cc1cc(NC2CCCCC2NC(=O)C2CCC(=O)NC2)n2ncnc2n1

$$$$

  CDD

  0  0  0  0  0  0            999 V2000
M  END
> <Molecule Name>
CVD-0001824

> <SMILES>
CC1CN(CC1NCc1nnsc1Cl)C(=O)c1n[nH]c2CCCc12

$$$$

  CDD

  0  0  0  0  0  0            999 V2000
M  END
> <Molecule Name>
CVD-0001823

> <SMILES>
O=C1CCC(N1)c1nnc(N2CCNC(=O)C2)n1CCc1ccsc1

$$$$

  CDD

  0  0  0  0  0  0            999 V2000
M  END
> <Molecule Name>
CVD-0001822

> <SMILES>
NC(=O)C1CCN(CC1)c1nnc(C2CCC(=O)N2)n1CCc1cc(F)cc(F)c1

$$$$

  CDD

  0  0  0  0  0  0            999 V2000
M  END
> <Molecule Name>
CVD-0001821

> <SMILES>
CC(=O)N1CCN(CC1)c1nnc(C2CCC(=O)N2)n1CC(=O)Nc1c(C)cccc1C

$$$$

  CDD

  0  0  0  0  0  0            999 V2000
M  END
> <Molecule Name>
CVD-0001820

> <SMILES>
CC(C)(Cn1c(nnc1N1CCCC(C1)C(N)=O)C1CCC(=O)N1)c1ccccc1F

$$$$

  CDD

  0  0  0  0  0  0            999 V2000
M  END
> <Molecule Name>
CVD-0001819

> <SMILES>
CC(C)N1CCC(O)(Cn2c(nnc2-c2ccc[nH]2)N(C)Cc2cnn(C)c2)CC1

$$$$

  CDD

  0  0  0  0  0  0            999 V2000
M  END
> <Molecule Name>
CVD-0001818

> <SMILES>
CCSc1cc(Cn2c(nnc2N2CCC(CC2)C(N)=O)C2CCC(=O)N2)ccn1

$$$$

  CDD

  0  0  0  0  0  0            999 V2000
M  END
> <Molecule Name>
CVD-0001817

> <SMILES>
Fc1cccc(CC(=O)NCCn2c(nnc2N2CCSCC2)C2CCC(=O)N2)c1

$$$$

  CDD

  0  0  0  0  0  0            999 V2000
M  END
> <Molecule Name>
CVD-0001816

> <SMILES>
FC(F)(F)C1CN(CC1NCc1noc(n1)C1CC1)C(=O)c1cc[nH]n1

$$$$

  CDD

  0  0  0  0  0  0            999 V2000
M  END
> <Molecule Name>
CVD-0001815

> <SMILES>
Cc1n[nH]c(C(=O)N2CCC3CN(Cc4nnsc4Cl)CC23)c1O

$$$$

  CDD

  0  0  0  0  0  0            999 V2000
M  END
> <Molecule Name>
CVD-0001814

> <SMILES>
OCc1ccncc1-c1cc(CCc2cn[nH]c2)ccn1

$$$$

  CDD

  0  0  0  0  0  0            999 V2000
M  END
> <Molecule Name>
CVD-0001813

> <SMILES>
CC(=O)N1CCN(CC1)C1CCNc2ccc(Cl)cc12

$$$$

  CDD

  0  0  0  0  0  0            999 V2000
M  END
> <Molecule Name>
CVD-0001812

> <SMILES>
CC(=O)Nc1ccc(Cl)cc1CN1CCN(CC1)C(C)=O

$$$$

  CDD

  0  0  0  0  0  0            999 V2000
M  END
> <Molecule Name>
CVD-0001811

> <SMILES>
CCNc1ccc(cc1CN1CCN(CC1)C(C)=O)C#N

$$$$

  CDD

  0  0  0  0  0  0            999 V2000
M  END
> <Molecule Name>
CVD-0001810

> <SMILES>
CCNc1ccc(Cl)cc1CN1CCN(CC1)C(C)=O

$$$$

  CDD

  0  0  0  0  0  0            999 V2000
M  END
> <Molecule Name>
CVD-0001809

> <SMILES>
Cc1ccncc1-n1c2CCCN(CCC(N)=N)c2ccc1=O

$$$$

  CDD

  0  0  0  0  0  0            999 V2000
M  END
> <Molecule Name>
CVD-0001808

> <SMILES>
Cc1ccncc1-n1c2CCCN(CC(N)=O)c2ccc1=O

$$$$

  CDD

  0  0  0  0  0  0            999 V2000
M  END
> <Molecule Name>
CVD-0001807

> <SMILES>
Cc1ccncc1-n1c2CCCN(CC(N)=N)c2ccc1=O

$$$$

  CDD

  0  0  0  0  0  0            999 V2000
M  END
> <Molecule Name>
CVD-0001806

> <SMILES>
Cc1ccncc1N1C(=O)CCN(CCC(N)=O)C1=O

$$$$

  CDD

  0  0  0  0  0  0            999 V2000
M  END
> <Molecule Name>
CVD-0001805

> <SMILES>
Cc1ccncc1N1C(=O)CCN(CCC(N)=N)C1=O

$$$$

  CDD

  0  0  0  0  0  0            999 V2000
M  END
> <Molecule Name>
CVD-0001804

> <SMILES>
Cc1ccncc1N1C(=O)CCN(CC(N)=O)C1=O

$$$$

  CDD

  0  0  0  0  0  0            999 V2000
M  END
> <Molecule Name>
CVD-0001803

> <SMILES>
Cc1ccncc1N1C(=O)CCN(CC(N)=N)C1=O

$$$$

  CDD

  0  0  0  0  0  0            999 V2000
M  END
> <Molecule Name>
CVD-0001802

> <SMILES>
Cc1ccncc1N1C(=O)CCNC1=O

$$$$

  CDD

  0  0  0  0  0  0            999 V2000
M  END
> <Molecule Name>
CVD-0001801

> <SMILES>
NC(=O)CCN1CCC(=O)N(C1=O)c1cncc2CNCCc12

$$$$

  CDD

  0  0  0  0  0  0            999 V2000
M  END
> <Molecule Name>
CVD-0001800

> <SMILES>
Cc1ccncc1-n1c2CCCN(CCC(N)=O)c2ccc1=O

$$$$

  CDD

  0  0  0  0  0  0            999 V2000
M  END
> <Molecule Name>
CVD-0001799

> <SMILES>
CC(=O)Nc1cncc2CNCCc12

$$$$

  CDD

  0  0  0  0  0  0            999 V2000
M  END
> <Molecule Name>
CVD-0001798

> <SMILES>
CC(=O)N1CCN(Cc2cc(O)cc(Cl)c2)CC1

$$$$

  CDD

  0  0  0  0  0  0            999 V2000
M  END
> <Molecule Name>
CVD-0001797

> <SMILES>
CN(CCCN1c2ccccc2CCc2ccccc12)C(C)=O

$$$$

  CDD

  0  0  0  0  0  0            999 V2000
M  END
> <Molecule Name>
CVD-0001796

> <SMILES>
CC(=O)N1CCN(Cc2ccc3nc(ccc3c2Br)S(N)(=O)=O)C[C@H](C1)c1cccnc1

$$$$

  CDD

  0  0  0  0  0  0            999 V2000
M  END
> <Molecule Name>
CVD-0001795

> <SMILES>
CC(=O)N1CCN(Cc2ccc3nc(ccc3c2Br)C(N)=O)C[C@H](C1)c1cccnc1

$$$$

  CDD

  0  0  0  0  0  0            999 V2000
M  END
> <Molecule Name>
CVD-0001794

> <SMILES>
CC(=O)N1CCN(Cc2ccc3nc(ccc3c2C)C(N)=O)C[C@H](C1)c1cccnc1

$$$$

  CDD

  0  0  0  0  0  0            999 V2000
M  END
> <Molecule Name>
CVD-0001793

> <SMILES>
CC(=O)N1CCN(Cc2ccc3nc(ccc3c2F)C(N)=O)C[C@H](C1)c1cccnc1

$$$$

  CDD

  0  0  0  0  0  0            999 V2000
M  END
> <Molecule Name>
CVD-0001792

> <SMILES>
CC(=O)N1CCN(Cc2ccc3nc(ccc3c2F)S(N)(=O)=O)C[C@H](C1)c1cccnc1

$$$$

  CDD

  0  0  0  0  0  0            999 V2000
M  END
> <Molecule Name>
CVD-0001791

> <SMILES>
CC(=O)N1CCN(Cc2ccc3cc(ccc3c2F)C(N)=O)C[C@H](C1)c1cccnc1

$$$$

  CDD

  0  0  0  0  0  0            999 V2000
M  END
> <Molecule Name>
CVD-0001790

> <SMILES>
CC(=O)N1CCN(Cc2ccc3cc(ccc3c2C)S(N)(=O)=O)C[C@H](C1)c1cccnc1

$$$$

  CDD

  0  0  0  0  0  0            999 V2000
M  END
> <Molecule Name>
CVD-0001789

> <SMILES>
CC(=O)N1CCN(Cc2ccc3cc(ccc3c2Br)S(N)(=O)=O)C[C@H](C1)c1cccnc1

$$$$

  CDD

  0  0  0  0  0  0            999 V2000
M  END
> <Molecule Name>
CVD-0001788

> <SMILES>
CC(=O)N1CCN(Cc2ccc3nc(ccc3c2C)S(N)(=O)=O)C[C@H](C1)c1cccnc1

$$$$

  CDD

  0  0  0  0  0  0            999 V2000
M  END
> <Molecule Name>
CVD-0001787

> <SMILES>
CC(=O)N1CCN(Cc2ccc3cc(ccc3c2F)S(N)(=O)=O)C[C@H](C1)c1cccnc1

$$$$

  CDD

  0  0  0  0  0  0            999 V2000
M  END
> <Molecule Name>
CVD-0001786

> <SMILES>
CC1CCCC(C1)C1CN(CCN1C1CCCCC1N1CCOCC1)C(=O)CS

$$$$

  CDD

  0  0  0  0  0  0            999 V2000
M  END
> <Molecule Name>
CVD-0001785

> <SMILES>
Cc1cccc(c1)C1CN(CCN1c1ccccc1N1CCOCC1)C(=O)CS

$$$$

  CDD

  0  0  0  0  0  0            999 V2000
M  END
> <Molecule Name>
CVD-0001784

> <SMILES>
Cc1cccc(c1)C1CN(CCN1c1ccccc1C#N)C(=O)CS

$$$$

  CDD

  0  0  0  0  0  0            999 V2000
M  END
> <Molecule Name>
CVD-0001783

> <SMILES>
Cc1cccc(c1)C1CN(CCN1c1ccccc1[N+](O)=O)C(=O)CS

$$$$

  CDD

  0  0  0  0  0  0            999 V2000
M  END
> <Molecule Name>
CVD-0001782

> <SMILES>
O=C(Cc1c[nH]c2ncccc12)Nc1cccnc1

$$$$

  CDD

  0  0  0  0  0  0            999 V2000
M  END
> <Molecule Name>
CVD-0001781

> <SMILES>
c1ccncc1

$$$$

  CDD

  0  0  0  0  0  0            999 V2000
M  END
> <Molecule Name>
CVD-0001780

> <SMILES>
c1cc2ccccc2[nH]1

$$$$

  CDD

  0  0  0  0  0  0            999 V2000
M  END
> <Molecule Name>
CVD-0001779

> <SMILES>
CN1CCCC1c1cccnc1

$$$$

  CDD

  0  0  0  0  0  0            999 V2000
M  END
> <Molecule Name>
CVD-0001778

> <SMILES>
CCCCCCCCCCCCCCCC(=O)Oc1c(O)ccc(C2Oc3cc(O)cc(O)c3CC2OC(=O)c2cc(O)c(O)c(O)c2)c1O

$$$$

  CDD

  0  0  0  0  0  0            999 V2000
M  END
> <Molecule Name>
CVD-0001777

> <SMILES>
Oc1cc(O)c2C[C@@H](OC(=O)c3cc(O)c(O)c(O)c3)[C@H](Oc2c1)c1cc(O)c(O)c(O)c1

$$$$

  CDD

  0  0  0  0  0  0            999 V2000
M  END
> <Molecule Name>
CVD-0001776

> <SMILES>
OC1Cc2c(O)cc(O)cc2OC1c1ccc(O)c(O)c1

$$$$

  CDD

  0  0  0  0  0  0            999 V2000
M  END
> <Molecule Name>
CVD-0001775

> <SMILES>
CC(C)C[C@H](NC(=O)[C@H](Cc1cnc[nH]1)NC(=O)[C@@H](N)Cc1ccccc1)C(O)=O

$$$$

  CDD

  0  0  0  0  0  0            999 V2000
M  END
> <Molecule Name>
CVD-0001774

> <SMILES>
Oc1ccc(cc1NC(=O)C=C)C(=O)NC[C@H](Cc1ccccc1)c1ccccn1

$$$$

  CDD

  0  0  0  0  0  0            999 V2000
M  END
> <Molecule Name>
CVD-0001773

> <SMILES>
OC[C@@H](NC(=O)c1ccc(CNC(=O)C=C)cc1)c1ccc(Br)c(F)c1

$$$$

  CDD

  0  0  0  0  0  0            999 V2000
M  END
> <Molecule Name>
CVD-0001772

> <SMILES>
Brc1ccsc1CN(CCN1CCOCC1)C(=O)CNC(=O)C=C

$$$$

  CDD

  0  0  0  0  0  0            999 V2000
M  END
> <Molecule Name>
CVD-0001771

> <SMILES>
Cc1[nH]c2c(CNC(=O)c3ccc(CNC(=O)C=C)cc3)cc(C)cc2c1C

$$$$

  CDD

  0  0  0  0  0  0            999 V2000
M  END
> <Molecule Name>
CVD-0001770

> <SMILES>
O[C@@H](CN(Cc1ccccc1)C(=O)CNC(=O)C=C)c1cccs1

$$$$

  CDD

  0  0  0  0  0  0            999 V2000
M  END
> <Molecule Name>
CVD-0001769

> <SMILES>
CCNC(NC(=O)N1C=COC=C1)c1ccc(N)cc1

$$$$

  CDD

  0  0  0  0  0  0            999 V2000
M  END
> <Molecule Name>
CVD-0001768

> <SMILES>
CC(NCCc1cccc(CC(=O)N2C=CN(C)C=C2)c1)c1ccccc1F

$$$$

  CDD

  0  0  0  0  0  0            999 V2000
M  END
> <Molecule Name>
CVD-0001767

> <SMILES>
CN1C=CN(C=C1)C(=O)Cc1cccc(c1)C(=O)CNCc1ccccc1F

$$$$

  CDD

  0  0  0  0  0  0            999 V2000
M  END
> <Molecule Name>
CVD-0001766

> <SMILES>
O=C(Nc1cccnc1)N(CCC1CC1)c1cccc(c1)C#N

$$$$

  CDD

  0  0  0  0  0  0            999 V2000
M  END
> <Molecule Name>
CVD-0001765

> <SMILES>
CCNc1ncc(cc1N(CCC(N)=N)C(=O)Nc1cccnc1)C#N

$$$$

  CDD

  0  0  0  0  0  0            999 V2000
M  END
> <Molecule Name>
CVD-0001764

> <SMILES>
NC(=N)CCN(C(=O)Nc1cccnc1)c1cccc(c1)C#N

$$$$

  CDD

  0  0  0  0  0  0            999 V2000
M  END
> <Molecule Name>
CVD-0001763

> <SMILES>
CCNc1ncc(cc1N(CN1CCC(O)CC1)C(=O)Nc1cccnc1)C#N

$$$$

  CDD

  0  0  0  0  0  0            999 V2000
M  END
> <Molecule Name>
CVD-0001762

> <SMILES>
OC1CCN(CN(C(=O)Nc2cccnc2)c2cccc(c2)C#N)CC1

$$$$

  CDD

  0  0  0  0  0  0            999 V2000
M  END
> <Molecule Name>
CVD-0001761

> <SMILES>
CCNc1ncc(cc1N(CN1CCOCC1)C(=O)Nc1cccnc1)C#N

$$$$

  CDD

  0  0  0  0  0  0            999 V2000
M  END
> <Molecule Name>
CVD-0001760

> <SMILES>
CCNc1ncc(cc1N(CCN1CCCCC1)C(=O)Nc1cccnc1)C#N

$$$$

  CDD

  0  0  0  0  0  0            999 V2000
M  END
> <Molecule Name>
CVD-0001759

> <SMILES>
O=C(Nc1cccnc1)N(CCN1CCCCC1)c1cccc(c1)C#N

$$$$

  CDD

  0  0  0  0  0  0            999 V2000
M  END
> <Molecule Name>
CVD-0001758

> <SMILES>
O=C(Nc1cccnc1)N(CN1CCOCC1)c1cccc(c1)C#N

$$$$

  CDD

  0  0  0  0  0  0            999 V2000
M  END
> <Molecule Name>
CVD-0001757

> <SMILES>
CCNc1ncc(cc1N(CCN1CCN(C)CC1)C(=O)Nc1cccnc1)C#N

$$$$

  CDD

  0  0  0  0  0  0            999 V2000
M  END
> <Molecule Name>
CVD-0001756

> <SMILES>
CN1CCN(CCN(C(=O)Nc2cccnc2)c2cccc(c2)C#N)CC1

$$$$

  CDD

  0  0  0  0  0  0            999 V2000
M  END
> <Molecule Name>
CVD-0001755

> <SMILES>
CCNc1ncc(cc1N(CCN1CCNCC1)C(=O)Nc1cccnc1)C#N

$$$$

  CDD

  0  0  0  0  0  0            999 V2000
M  END
> <Molecule Name>
CVD-0001754

> <SMILES>
O=C(Nc1cccnc1)N(CCN1CCNCC1)c1cccc(c1)C#N

$$$$

  CDD

  0  0  0  0  0  0            999 V2000
M  END
> <Molecule Name>
CVD-0001753

> <SMILES>
CCNc1ncc(cc1N(CCN1CCC(O)CC1)C(=O)Nc1cccnc1)C#N

$$$$

  CDD

  0  0  0  0  0  0            999 V2000
M  END
> <Molecule Name>
CVD-0001752

> <SMILES>
OC1CCN(CCN(C(=O)Nc2cccnc2)c2cccc(c2)C#N)CC1

$$$$

  CDD

  0  0  0  0  0  0            999 V2000
M  END
> <Molecule Name>
CVD-0001751

> <SMILES>
CCNc1ncc(cc1N(CN1CCC(C)CC1)C(=O)Nc1cccnc1)C#N

$$$$

  CDD

  0  0  0  0  0  0            999 V2000
M  END
> <Molecule Name>
CVD-0001750

> <SMILES>
CC1CCN(CN(C(=O)Nc2cccnc2)c2cccc(c2)C#N)CC1

$$$$

  CDD

  0  0  0  0  0  0            999 V2000
M  END
> <Molecule Name>
CVD-0001749

> <SMILES>
CCNc1ncc(cc1N(CC1CCCCC1)C(=O)Nc1cccnc1)C#N

$$$$

  CDD

  0  0  0  0  0  0            999 V2000
M  END
> <Molecule Name>
CVD-0001748

> <SMILES>
O=C(Nc1cccnc1)N(CC1CCCCC1)c1cccc(c1)C#N

$$$$

  CDD

  0  0  0  0  0  0            999 V2000
M  END
> <Molecule Name>
CVD-0001747

> <SMILES>
CCNc1ncc(cc1N(CCC1CCCCC1)C(=O)Nc1cccnc1)C#N

$$$$

  CDD

  0  0  0  0  0  0            999 V2000
M  END
> <Molecule Name>
CVD-0001746

> <SMILES>
O=C(Nc1cccnc1)N(CCC1CCCCC1)c1cccc(c1)C#N

$$$$

  CDD

  0  0  0  0  0  0            999 V2000
M  END
> <Molecule Name>
CVD-0001745

> <SMILES>
CCNc1ncc(cc1N(CCN1CCOCC1)C(=O)Nc1cccnc1)C#N

$$$$

  CDD

  0  0  0  0  0  0            999 V2000
M  END
> <Molecule Name>
CVD-0001744

> <SMILES>
O=C(Nc1cccnc1)N(CCN1CCOCC1)c1cccc(c1)C#N

$$$$

  CDD

  0  0  0  0  0  0            999 V2000
M  END
> <Molecule Name>
CVD-0001743

> <SMILES>
CCNc1ncc(cc1N(CN1CCN(C)CC1)C(=O)Nc1cccnc1)C#N

$$$$

  CDD

  0  0  0  0  0  0            999 V2000
M  END
> <Molecule Name>
CVD-0001742

> <SMILES>
CN1CCN(CN(C(=O)Nc2cccnc2)c2cccc(c2)C#N)CC1

$$$$

  CDD

  0  0  0  0  0  0            999 V2000
M  END
> <Molecule Name>
CVD-0001741

> <SMILES>
CCNc1ncc(cc1N(CN1CCNCC1)C(=O)Nc1cccnc1)C#N

$$$$

  CDD

  0  0  0  0  0  0            999 V2000
M  END
> <Molecule Name>
CVD-0001740

> <SMILES>
O=C(Nc1cccnc1)N(CN1CCNCC1)c1cccc(c1)C#N

$$$$

  CDD

  0  0  0  0  0  0            999 V2000
M  END
> <Molecule Name>
CVD-0001739

> <SMILES>
CCNc1ncc(cc1N(CCN1CCCOCC1)C(=O)Nc1cccnc1)C#N

$$$$

  CDD

  0  0  0  0  0  0            999 V2000
M  END
> <Molecule Name>
CVD-0001738

> <SMILES>
O=C(Nc1cccnc1)N(CCN1CCCOCC1)c1cccc(c1)C#N

$$$$

  CDD

  0  0  0  0  0  0            999 V2000
M  END
> <Molecule Name>
CVD-0001737

> <SMILES>
CCNc1ncc(cc1NC(=O)Nc1cccnc1)C#N

$$$$

  CDD

  0  0  0  0  0  0            999 V2000
M  END
> <Molecule Name>
CVD-0001736

> <SMILES>
Clc1cccc(c1)N(CCN1CCCOCC1)C(=O)Nc1cccnc1

$$$$

  CDD

  0  0  0  0  0  0            999 V2000
M  END
> <Molecule Name>
CVD-0001735

> <SMILES>
Clc1cccc(c1)N(CCC1CC1)C(=O)Nc1cccnc1

$$$$

  CDD

  0  0  0  0  0  0            999 V2000
M  END
> <Molecule Name>
CVD-0001734

> <SMILES>
Clc1cccc(c1)N(CCN1CCOCC1)C(=O)Nc1cccnc1

$$$$

  CDD

  0  0  0  0  0  0            999 V2000
M  END
> <Molecule Name>
CVD-0001733

> <SMILES>
CN1CCN(CN(C(=O)Nc2cccnc2)c2cccc(Cl)c2)CC1

$$$$

  CDD

  0  0  0  0  0  0            999 V2000
M  END
> <Molecule Name>
CVD-0001732

> <SMILES>
Clc1cccc(c1)N(CN1CCNCC1)C(=O)Nc1cccnc1

$$$$

  CDD

  0  0  0  0  0  0            999 V2000
M  END
> <Molecule Name>
CVD-0001731

> <SMILES>
OC1CCN(CN(C(=O)Nc2cccnc2)c2cccc(Cl)c2)CC1

$$$$

  CDD

  0  0  0  0  0  0            999 V2000
M  END
> <Molecule Name>
CVD-0001730

> <SMILES>
NC(=N)CCN(C(=O)Nc1cccnc1)c1cccc(Cl)c1

$$$$

  CDD

  0  0  0  0  0  0            999 V2000
M  END
> <Molecule Name>
CVD-0001729

> <SMILES>
Clc1cccc(c1)N(CCN1CCCCC1)C(=O)Nc1cccnc1

$$$$

  CDD

  0  0  0  0  0  0            999 V2000
M  END
> <Molecule Name>
CVD-0001728

> <SMILES>
Clc1cccc(c1)N(CN1CCCCC1)C(=O)Nc1cccnc1

$$$$

  CDD

  0  0  0  0  0  0            999 V2000
M  END
> <Molecule Name>
CVD-0001727

> <SMILES>
CC1CCN(CCN(C(=O)Nc2cccnc2)c2cccc(Cl)c2)CC1

$$$$

  CDD

  0  0  0  0  0  0            999 V2000
M  END
> <Molecule Name>
CVD-0001726

> <SMILES>
CC1CCN(CN(C(=O)Nc2cccnc2)c2cccc(Cl)c2)CC1

$$$$

  CDD

  0  0  0  0  0  0            999 V2000
M  END
> <Molecule Name>
CVD-0001725

> <SMILES>
OC1CCN(CCN(C(=O)Nc2cccnc2)c2cccc(Cl)c2)CC1

$$$$

  CDD

  0  0  0  0  0  0            999 V2000
M  END
> <Molecule Name>
CVD-0001724

> <SMILES>
Clc1cccc(c1)N(CCC1CCCCC1)C(=O)Nc1cccnc1

$$$$

  CDD

  0  0  0  0  0  0            999 V2000
M  END
> <Molecule Name>
CVD-0001723

> <SMILES>
CN1CCN(CCN(C(=O)Nc2cccnc2)c2cccc(Cl)c2)CC1

$$$$

  CDD

  0  0  0  0  0  0            999 V2000
M  END
> <Molecule Name>
CVD-0001722

> <SMILES>
Clc1cccc(c1)N(CCN1CCNCC1)C(=O)Nc1cccnc1

$$$$

  CDD

  0  0  0  0  0  0            999 V2000
M  END
> <Molecule Name>
CVD-0001721

> <SMILES>
Clc1cccc(c1)N(CN1CCOCC1)C(=O)Nc1cccnc1

$$$$

  CDD

  0  0  0  0  0  0            999 V2000
M  END
> <Molecule Name>
CVD-0001720

> <SMILES>
CC(=O)NCCC1C=Nc2c1cc(F)cc2CN1CCN(CC1)C(=O)CCl

$$$$

  CDD

  0  0  0  0  0  0            999 V2000
M  END
> <Molecule Name>
CVD-0001719

> <SMILES>
Cc1cccc(CN2CCC(CC2)C#N)c1

$$$$

  CDD

  0  0  0  0  0  0            999 V2000
M  END
> <Molecule Name>
CVD-0001718

> <SMILES>
ClCC(=O)N1CCN(Cc2cc(Cl)cc3cnccc23)CC1

$$$$

  CDD

  0  0  0  0  0  0            999 V2000
M  END
> <Molecule Name>
CVD-0001717

> <SMILES>
N#Cc1ncnc(n1)-c1nc2ccccc2s1

$$$$

  CDD

  0  0  0  0  0  0            999 V2000
M  END
> <Molecule Name>
CVD-0001716

> <SMILES>
N#Cc1nccc(n1)-c1nc2ccccc2s1

$$$$

  CDD

  0  0  0  0  0  0            999 V2000
M  END
> <Molecule Name>
CVD-0001715

> <SMILES>
CC#CC(=O)N1CCCC(C1)c1nc2ccccc2s1

$$$$

  CDD

  0  0  0  0  0  0            999 V2000
M  END
> <Molecule Name>
CVD-0001714

> <SMILES>
FC(Cl)C(=O)N1CCCC(C1)c1nc2ccccc2s1

$$$$

  CDD

  0  0  0  0  0  0            999 V2000
M  END
> <Molecule Name>
CVD-0001713

> <SMILES>
C=CC(=O)N1CCCC(C1)c1nc2ccccc2s1

$$$$

  CDD

  0  0  0  0  0  0            999 V2000
M  END
> <Molecule Name>
CVD-0001712

> <SMILES>
N[C@@H](C[C@@H]1CCNC1=O)C(=O)C(=O)NCc1cccc(c1)C(=O)N1CCSCC1

$$$$

  CDD

  0  0  0  0  0  0            999 V2000
M  END
> <Molecule Name>
CVD-0001711

> <SMILES>
O=C(CC[C@@H]1CCNC1=O)C(=O)NCc1cccc(c1)C(=O)N1CCSCC1

$$$$

  CDD

  0  0  0  0  0  0            999 V2000
M  END
> <Molecule Name>
CVD-0001710

> <SMILES>
N#CC1CCCC(C1)c1nc2ccccc2s1

$$$$

  CDD

  0  0  0  0  0  0            999 V2000
M  END
> <Molecule Name>
CVD-0001709

> <SMILES>
FC(Cl)C(=O)N1CCN(Cc2cccc3ccccc23)CC1

$$$$

  CDD

  0  0  0  0  0  0            999 V2000
M  END
> <Molecule Name>
CVD-0001708

> <SMILES>
CC#CC(=O)N1CCN(Cc2cccc3ccccc23)CC1

$$$$

  CDD

  0  0  0  0  0  0            999 V2000
M  END
> <Molecule Name>
CVD-0001707

> <SMILES>
C=CC(=O)N1CCN(Cc2cccc3ccccc23)CC1

$$$$

  CDD

  0  0  0  0  0  0            999 V2000
M  END
> <Molecule Name>
CVD-0001706

> <SMILES>
CC#CC(=O)Nc1cccc(c1)C(=O)N1CCSCC1

$$$$

  CDD

  0  0  0  0  0  0            999 V2000
M  END
> <Molecule Name>
CVD-0001705

> <SMILES>
FC(Cl)C(=O)Nc1cccc(c1)C(=O)N1CCSCC1

$$$$

  CDD

  0  0  0  0  0  0            999 V2000
M  END
> <Molecule Name>
CVD-0001704

> <SMILES>
C=CC(=O)Nc1cccc(c1)C(=O)N1CCSCC1

$$$$

  CDD

  0  0  0  0  0  0            999 V2000
M  END
> <Molecule Name>
CVD-0001703

> <SMILES>
ClCC(=O)N1CCN(CC1)[C@H](N1CCCOCC1)c1cccc2ccccc12

$$$$

  CDD

  0  0  0  0  0  0            999 V2000
M  END
> <Molecule Name>
CVD-0001702

> <SMILES>
CC1CCCC(NCS(N)(=O)=O)N1CC\C(F)=C\CO

$$$$

  CDD

  0  0  0  0  0  0            999 V2000
M  END
> <Molecule Name>
CVD-0001701

> <SMILES>
CNC(=O)C1=C(C)CCC2C(CO)CN(CCS(N)(=O)=O)CN12

$$$$

  CDD

  0  0  0  0  0  0            999 V2000
M  END
> <Molecule Name>
CVD-0001700

> <SMILES>
CCNC1CC=C(F)C=C1CNC(=O)[C@@]1(C)[C@H]2C(CC[C@@]2(C)O)C2(C)CCC12C(O)=O

$$$$

  CDD

  0  0  0  0  0  0            999 V2000
M  END
> <Molecule Name>
CVD-0001699

> <SMILES>
CC(O)N1CCN(CC1C)C1=C(C#N)C(F)=C(Cl)CC1C(O)S(N)(=O)=O

$$$$

  CDD

  0  0  0  0  0  0            999 V2000
M  END
> <Molecule Name>
CVD-0001698

> <SMILES>
CNC(=O)[C@@H]1CC[C@@H](O1)N1CCC2CCC(C)=C(NCS(N)(=O)=O)N2C1=C

$$$$

  CDD

  0  0  0  0  0  0            999 V2000
M  END
> <Molecule Name>
CVD-0001697

> <SMILES>
CC(C)(C)C1=C(O)C(CC#N)=C(C1OC(C)(F)C(N)=O)N1CCC(O)CC1

$$$$

  CDD

  0  0  0  0  0  0            999 V2000
M  END
> <Molecule Name>
CVD-0001696

> <SMILES>
CC1C(NCC(=O)NC2CC=CN=C2)=C(C=C)C(O)=C1C(C)(C)C

$$$$

  CDD

  0  0  0  0  0  0            999 V2000
M  END
> <Molecule Name>
CVD-0001695

> <SMILES>
COC1C=C(O)CC1NCCN1C(C)=CCC(C)=C1C(O)\C=C\F

$$$$

  CDD

  0  0  0  0  0  0            999 V2000
M  END
> <Molecule Name>
CVD-0001694

> <SMILES>
OC1N=C(SCC(=O)NC2=CCN=CC2C(F)F)N=C(C1C#N)C1=CCCC=C1C#N

$$$$

  CDD

  0  0  0  0  0  0            999 V2000
M  END
> <Molecule Name>
CVD-0001693

> <SMILES>
CNC(=O)NC1=C(CC(O)C1)[C@H](C)C(=O)NC

$$$$

  CDD

  0  0  0  0  0  0            999 V2000
M  END
> <Molecule Name>
CVD-0001692

> <SMILES>
C[C@H](C1=C(O)CC(O)=C1)C1(CC=C(O)CC1C(O)=O)C(O)=O

$$$$

  CDD

  0  0  0  0  0  0            999 V2000
M  END
> <Molecule Name>
CVD-0001691

> <SMILES>
CC(CCO)([C@H]1CC[C@@H](CO)O1)C1=C(O)COC(O)=C1

$$$$

  CDD

  0  0  0  0  0  0            999 V2000
M  END
> <Molecule Name>
CVD-0001690

> <SMILES>
CNC(=O)N[C@H]1CCOC(N)(CO)O1

$$$$

  CDD

  0  0  0  0  0  0            999 V2000
M  END
> <Molecule Name>
CVD-0001689

> <SMILES>
CCCNC1=NCC(C=C1CC1C(C)NC2=NC=CCC12)C#N

$$$$

  CDD

  0  0  0  0  0  0            999 V2000
M  END
> <Molecule Name>
CVD-0001688

> <SMILES>
CCNC1=NC=CCC1CC1(CCN(C)C1)C1(O)CC(F)=CCO1

$$$$

  CDD

  0  0  0  0  0  0            999 V2000
M  END
> <Molecule Name>
CVD-0001687

> <SMILES>
CCC(C(O)C(=C(/C)Cl)\C1=C(CO)NC(=O)CC1)C1N=CC=C1CO

$$$$

  CDD

  0  0  0  0  0  0            999 V2000
M  END
> <Molecule Name>
CVD-0001686

> <SMILES>
CNC(=O)NCC1C(CCl)CC2CN(CCC12)S(=O)(=O)c1cc(C)c(cc1C)C(=O)OC

$$$$

  CDD

  0  0  0  0  0  0            999 V2000
M  END
> <Molecule Name>
CVD-0001685

> <SMILES>
CC(C)C(F)C(=O)N1CCN(Cc2ccccc2C)CC1

$$$$

  CDD

  0  0  0  0  0  0            999 V2000
M  END
> <Molecule Name>
CVD-0001684

> <SMILES>
NC(=O)N1CCN(CC1)C(=O)C(F)c1cccc(F)c1C#N

$$$$

  CDD

  0  0  0  0  0  0            999 V2000
M  END
> <Molecule Name>
CVD-0001683

> <SMILES>
C[C@H](NC(=O)[C@@H](C)c1ccc(F)c(F)c1)c1cccc(F)c1

$$$$

  CDD

  0  0  0  0  0  0            999 V2000
M  END
> <Molecule Name>
CVD-0001682

> <SMILES>
CC(=O)N1CCC(CC1)C(F)C(C#N)c1cccc(F)c1S(N)(=O)=O

$$$$

  CDD

  0  0  0  0  0  0            999 V2000
M  END
> <Molecule Name>
CVD-0001681

> <SMILES>
CC(=O)N1CCC(CC1)S(=O)(=O)c1ccccc1Cl

$$$$

  CDD

  0  0  0  0  0  0            999 V2000
M  END
> <Molecule Name>
CVD-0001680

> <SMILES>
CC(=O)N1CCN(CC1)C(=O)C(F)c1ncccc1Cl

$$$$

  CDD

  0  0  0  0  0  0            999 V2000
M  END
> <Molecule Name>
CVD-0001679

> <SMILES>
CC(=O)N1CCN(CC1)C(=O)Cc1ccccn1

$$$$

  CDD

  0  0  0  0  0  0            999 V2000
M  END
> <Molecule Name>
CVD-0001678

> <SMILES>
NC(=O)N1CCN(CC1)C(=O)C(O)(F)c1ccccn1

$$$$

  CDD

  0  0  0  0  0  0            999 V2000
M  END
> <Molecule Name>
CVD-0001677

> <SMILES>
CC(F)C(=O)N1CCN(CC1)C(=O)N1CCN(Cc2ccccc2C)CC1

$$$$

  CDD

  0  0  0  0  0  0            999 V2000
M  END
> <Molecule Name>
CVD-0001676

> <SMILES>
CCC(F)C(=O)N1CCN(CC(=O)N2CCN(Cc3ccccc3CNC(=O)CC)CC2)CC1

$$$$

  CDD

  0  0  0  0  0  0            999 V2000
M  END
> <Molecule Name>
CVD-0001675

> <SMILES>
C[C@H](NC(=O)C(F)F)c1cccc(F)c1

$$$$

  CDD

  0  0  0  0  0  0            999 V2000
M  END
> <Molecule Name>
CVD-0001674

> <SMILES>
CC(F)C(NC(C)=O)c1cc(F)cc(c1)S(N)(=O)=O

$$$$

  CDD

  0  0  0  0  0  0            999 V2000
M  END
> <Molecule Name>
CVD-0001673

> <SMILES>
OCC(N1CCC(CC1)C(C#N)C1C=CC(F)=C1)c1cccc(F)c1

$$$$

  CDD

  0  0  0  0  0  0            999 V2000
M  END
> <Molecule Name>
CVD-0001672

> <SMILES>
CCC(=O)N1CCN(Cc2ccccc2CN2CCN(CC2)C(=O)C(O)F)CC1

$$$$

  CDD

  0  0  0  0  0  0            999 V2000
M  END
> <Molecule Name>
CVD-0001671

> <SMILES>
CCC(=O)N1CCN(Cc2cc(ccc2C(C)(O)F)C#N)CC1

$$$$

  CDD

  0  0  0  0  0  0            999 V2000
M  END
> <Molecule Name>
CVD-0001670

> <SMILES>
CC(=O)N1CCN(CC1)C(=O)C(F)c1ccccn1

$$$$

  CDD

  0  0  0  0  0  0            999 V2000
M  END
> <Molecule Name>
CVD-0001669

> <SMILES>
C[C@@H]1NC(=O)[C@H](CCCNC(N)=N)NC(=O)[C@@H](NC(=O)[C@H](NC(=O)[C@@H](NC1=O)C(C1CCCCC1)c1ccccc1)c1cncc2[nH]ccc12)C1CC1

$$$$

  CDD

  0  0  0  0  0  0            999 V2000
M  END
> <Molecule Name>
CVD-0001668

> <SMILES>
NC(=N)NCCC[C@@H]1NC(=O)[C@@H](NC(=O)[C@H](NC(=O)[C@@H](NC(=O)CNC1=O)C(C1CCCCC1)c1ccccc1)c1cncc2[nH]ccc12)C1CC1

$$$$

  CDD

  0  0  0  0  0  0            999 V2000
M  END
> <Molecule Name>
CVD-0001667

> <SMILES>
CC(O)C1NC(=O)C(NC(=O)C(NC(=O)C(NC(=O)C(CCC(O)=O)NC1=O)C(C1CCCCC1)c1ccccc1)c1cncc2[nH]ccc12)C1CC1

$$$$

  CDD

  0  0  0  0  0  0            999 V2000
M  END
> <Molecule Name>
CVD-0001666

> <SMILES>
NC(=O)c1nc(F)cnc1OCC(=O)N1CCC(CC1)C(=O)N1CCCCC1

$$$$

  CDD

  0  0  0  0  0  0            999 V2000
M  END
> <Molecule Name>
CVD-0001665

> <SMILES>
NC(=O)c1nc(F)cn(CC(=O)N2CCC(CC2)C(=O)N2CCCCC2)c1=O

$$$$

  CDD

  0  0  0  0  0  0            999 V2000
M  END
> <Molecule Name>
CVD-0001664

> <SMILES>
COc1cccc(c1)-n1cc(CN2CCN(CC2)C(C)=O)nn1

$$$$

  CDD

  0  0  0  0  0  0            999 V2000
M  END
> <Molecule Name>
CVD-0001663

> <SMILES>
COc1ccc(cc1)-n1cc(CN2CCN(CC2)C(C)=O)nn1

$$$$

  CDD

  0  0  0  0  0  0            999 V2000
M  END
> <Molecule Name>
CVD-0001662

> <SMILES>
C[C@H](O)N1CCN(Cc2cc(cnc2[NH])C#N)CC1

$$$$

  CDD

  0  0  0  0  0  0            999 V2000
M  END
> <Molecule Name>
CVD-0001661

> <SMILES>
[NH]c1ccc(F)c(Cc2cccc([N]CC(=O)Nc3cccnc3)c2)n1

$$$$

  CDD

  0  0  0  0  0  0            999 V2000
M  END
> <Molecule Name>
CVD-0001660

> <SMILES>
CC[N]c1cccc(Cc2cccc([N]CC(=O)Nc3cccnc3)c2)n1

$$$$

  CDD

  0  0  0  0  0  0            999 V2000
M  END
> <Molecule Name>
CVD-0001659

> <SMILES>
N#Cc1ncc(cc1-c1ncco1)N1CCCOCC1

$$$$

  CDD

  0  0  0  0  0  0            999 V2000
M  END
> <Molecule Name>
CVD-0001658

> <SMILES>
ClCC(=O)c1ccc(cn1)N1CCCOCC1

$$$$

  CDD

  0  0  0  0  0  0            999 V2000
M  END
> <Molecule Name>
CVD-0001657

> <SMILES>
O=C(Nc1cccnc1)c1cc(cnc1C#N)N1CCCOCC1

$$$$

  CDD

  0  0  0  0  0  0            999 V2000
M  END
> <Molecule Name>
CVD-0001656

> <SMILES>
O=C(Nc1cccnc1)c1ccc(cn1)N1CCCOCC1

$$$$

  CDD

  0  0  0  0  0  0            999 V2000
M  END
> <Molecule Name>
CVD-0001655

> <SMILES>
Clc1nc(ccc1N1CCCOCC1)C#N

$$$$

  CDD

  0  0  0  0  0  0            999 V2000
M  END
> <Molecule Name>
CVD-0001654

> <SMILES>
FC(F)c1cc(ncc1N1CCCOCC1)C#N

$$$$

  CDD

  0  0  0  0  0  0            999 V2000
M  END
> <Molecule Name>
CVD-0001653

> <SMILES>
FC(F)(F)c1cc(ncc1N1CCCOCC1)C#N

$$$$

  CDD

  0  0  0  0  0  0            999 V2000
M  END
> <Molecule Name>
CVD-0001652

> <SMILES>
Clc1cc(cnc1C#N)N1CCCOCC1

$$$$

  CDD

  0  0  0  0  0  0            999 V2000
M  END
> <Molecule Name>
CVD-0001651

> <SMILES>
FC(F)c1nc(ccc1N1CCCOCC1)C#N

$$$$

  CDD

  0  0  0  0  0  0            999 V2000
M  END
> <Molecule Name>
CVD-0001650

> <SMILES>
FC(F)c1cc(cnc1C#N)N1CCCOCC1

$$$$

  CDD

  0  0  0  0  0  0            999 V2000
M  END
> <Molecule Name>
CVD-0001649

> <SMILES>
Fc1cc(ncc1N1CCCOCC1)C#N

$$$$

  CDD

  0  0  0  0  0  0            999 V2000
M  END
> <Molecule Name>
CVD-0001648

> <SMILES>
FC(F)(F)c1cc(cnc1C#N)N1CCCOCC1

$$$$

  CDD

  0  0  0  0  0  0            999 V2000
M  END
> <Molecule Name>
CVD-0001647

> <SMILES>
FC(F)(F)c1nc(ccc1N1CCCOCC1)C#N

$$$$

  CDD

  0  0  0  0  0  0            999 V2000
M  END
> <Molecule Name>
CVD-0001646

> <SMILES>
Fc1cc(cnc1C#N)N1CCCOCC1

$$$$

  CDD

  0  0  0  0  0  0            999 V2000
M  END
> <Molecule Name>
CVD-0001645

> <SMILES>
CC1CN(CCN1C)c1cnc(C#N)c(c1)C(=O)Nc1ccccc1

$$$$

  CDD

  0  0  0  0  0  0            999 V2000
M  END
> <Molecule Name>
CVD-0001644

> <SMILES>
CC1CN(CCN1)c1cnc(C#N)c(c1)C(=O)Nc1ccccc1

$$$$

  CDD

  0  0  0  0  0  0            999 V2000
M  END
> <Molecule Name>
CVD-0001643

> <SMILES>
CC1NCCN(C1C)c1cnc(C#N)c(c1)C(=O)Nc1ccccc1

$$$$

  CDD

  0  0  0  0  0  0            999 V2000
M  END
> <Molecule Name>
CVD-0001642

> <SMILES>
CC1C(C)N(CCN1C)c1ccc(nc1)C#N

$$$$

  CDD

  0  0  0  0  0  0            999 V2000
M  END
> <Molecule Name>
CVD-0001641

> <SMILES>
CC1NCCN(C1C)c1ccc(nc1)C#N

$$$$

  CDD

  0  0  0  0  0  0            999 V2000
M  END
> <Molecule Name>
CVD-0001640

> <SMILES>
CC1CN(C)CCN1c1ccc(nc1)C#N

$$$$

  CDD

  0  0  0  0  0  0            999 V2000
M  END
> <Molecule Name>
CVD-0001639

> <SMILES>
CC1CNCCN1c1ccc(nc1)C#N

$$$$

  CDD

  0  0  0  0  0  0            999 V2000
M  END
> <Molecule Name>
CVD-0001638

> <SMILES>
CC1OCCN(C1C)c1ccc(nc1)C#N

$$$$

  CDD

  0  0  0  0  0  0            999 V2000
M  END
> <Molecule Name>
CVD-0001637

> <SMILES>
CC1OCCN(C1C)c1cnc(C#N)c(c1)C(=O)Nc1ccccc1

$$$$

  CDD

  0  0  0  0  0  0            999 V2000
M  END
> <Molecule Name>
CVD-0001636

> <SMILES>
CC1COCCN1c1cnc(C#N)c(c1)C(=O)Nc1ccccc1

$$$$

  CDD

  0  0  0  0  0  0            999 V2000
M  END
> <Molecule Name>
CVD-0001635

> <SMILES>
CC1CN(CCO1)c1cnc(C#N)c(c1)C(=O)Nc1ccccc1

$$$$

  CDD

  0  0  0  0  0  0            999 V2000
M  END
> <Molecule Name>
CVD-0001634

> <SMILES>
O=C(Nc1ccccc1)c1cc(cnc1C#N)N1CCOCC1

$$$$

  CDD

  0  0  0  0  0  0            999 V2000
M  END
> <Molecule Name>
CVD-0001633

> <SMILES>
CC1COCCN1c1ccc(nc1)C#N

$$$$

  CDD

  0  0  0  0  0  0            999 V2000
M  END
> <Molecule Name>
CVD-0001632

> <SMILES>
CC1CN(CN2CCCOCC2)CCN1C(=O)CF

$$$$

  CDD

  0  0  0  0  0  0            999 V2000
M  END
> <Molecule Name>
CVD-0001631

> <SMILES>
CC1CN(CCN1CN1CCCOCC1)C(=O)CCl

$$$$

  CDD

  0  0  0  0  0  0            999 V2000
M  END
> <Molecule Name>
CVD-0001630

> <SMILES>
CC1CN(CCN1CN1CCCOCC1)C(=O)CF

$$$$

  CDD

  0  0  0  0  0  0            999 V2000
M  END
> <Molecule Name>
CVD-0001629

> <SMILES>
CC1CN(CN2CCCOCC2)CCN1C(C)=O

$$$$

  CDD

  0  0  0  0  0  0            999 V2000
M  END
> <Molecule Name>
CVD-0001628

> <SMILES>
CC1CN(CCN1CN1CCCOCC1)C(C)=O

$$$$

  CDD

  0  0  0  0  0  0            999 V2000
M  END
> <Molecule Name>
CVD-0001627

> <SMILES>
COCCc1cc(Br)sc1C1(CC1)N1CCN(CC1)C#N

$$$$

  CDD

  0  0  0  0  0  0            999 V2000
M  END
> <Molecule Name>
CVD-0001626

> <SMILES>
COCc1cc(sc1Br)C1(CC1)N1CCN(CC1)C#N

$$$$

  CDD

  0  0  0  0  0  0            999 V2000
M  END
> <Molecule Name>
CVD-0001625

> <SMILES>
ClCC(=O)N1CCN(CN2CCCOCC2)CC1

$$$$

  CDD

  0  0  0  0  0  0            999 V2000
M  END
> <Molecule Name>
CVD-0001624

> <SMILES>
COCCc1cc(Br)sc1CN1CCN(CC1)C(=O)CCl

$$$$

  CDD

  0  0  0  0  0  0            999 V2000
M  END
> <Molecule Name>
CVD-0001623

> <SMILES>
COCc1cc(CN2CCN(CC2)C(=O)CCl)sc1Br

$$$$

  CDD

  0  0  0  0  0  0            999 V2000
M  END
> <Molecule Name>
CVD-0001622

> <SMILES>
Brc1ccc(s1)C1(CC1)N1CCN(CC1)C#N

$$$$

  CDD

  0  0  0  0  0  0            999 V2000
M  END
> <Molecule Name>
CVD-0001621

> <SMILES>
FC(F)(N1CCN(CC1)C#N)c1ccc(Br)s1

$$$$

  CDD

  0  0  0  0  0  0            999 V2000
M  END
> <Molecule Name>
CVD-0001620

> <SMILES>
CC1CN(CCN1C(F)(F)c1ccc(Br)s1)C(=O)CCl

$$$$

  CDD

  0  0  0  0  0  0            999 V2000
M  END
> <Molecule Name>
CVD-0001619

> <SMILES>
Brc1ccc(s1)C1(CCO1)N1CCN(CC1)C(=O)C=C

$$$$

  CDD

  0  0  0  0  0  0            999 V2000
M  END
> <Molecule Name>
CVD-0001618

> <SMILES>
ClCC(=O)N1CCN(CC1)C1(CCO1)c1ccc(Br)s1

$$$$

  CDD

  0  0  0  0  0  0            999 V2000
M  END
> <Molecule Name>
CVD-0001617

> <SMILES>
ClCC(=O)N1CCN(CC1)C1(CC1)c1ccc(Br)s1

$$$$

  CDD

  0  0  0  0  0  0            999 V2000
M  END
> <Molecule Name>
CVD-0001616

> <SMILES>
CC(=O)N1CCN(CC1)C(F)(F)c1ccc(Br)s1

$$$$

  CDD

  0  0  0  0  0  0            999 V2000
M  END
> <Molecule Name>
CVD-0001615

> <SMILES>
FC(F)(N1CCN(CC1)C(=O)CCl)c1ccc(Br)s1

$$$$

  CDD

  0  0  0  0  0  0            999 V2000
M  END
> <Molecule Name>
CVD-0001614

> <SMILES>
C=CC(=O)N1CCN(CN2CCCOCC2)CC1

$$$$

  CDD

  0  0  0  0  0  0            999 V2000
M  END
> <Molecule Name>
CVD-0001613

> <SMILES>
CC1CN(Cc2ccc(Br)s2)CCN1C(=O)CCl

$$$$

  CDD

  0  0  0  0  0  0            999 V2000
M  END
> <Molecule Name>
CVD-0001612

> <SMILES>
CC1CN(CCN1Cc1ccc(Br)s1)C(=O)CCl

$$$$

  CDD

  0  0  0  0  0  0            999 V2000
M  END
> <Molecule Name>
CVD-0001611

> <SMILES>
Brc1ccc(CN2CCN(CC2)C#N)s1

$$$$

  CDD

  0  0  0  0  0  0            999 V2000
M  END
> <Molecule Name>
CVD-0001610

> <SMILES>
Brc1ccc(s1)C(=O)N1CCN(CC1)C(=O)C=C

$$$$

  CDD

  0  0  0  0  0  0            999 V2000
M  END
> <Molecule Name>
CVD-0001609

> <SMILES>
ClCC(=O)N1CCN(CC1)C(=O)c1ccc(Br)s1

$$$$

  CDD

  0  0  0  0  0  0            999 V2000
M  END
> <Molecule Name>
CVD-0001608

> <SMILES>
FCC(=O)N1CCN(Cc2ccc(Br)s2)CC1

$$$$

  CDD

  0  0  0  0  0  0            999 V2000
M  END
> <Molecule Name>
CVD-0001607

> <SMILES>
ClCC(=O)N1CCN(Cc2ccc(Br)s2)CC1

$$$$

  CDD

  0  0  0  0  0  0            999 V2000
M  END
> <Molecule Name>
CVD-0001606

> <SMILES>
FC(N1CCN(CC1)C#N)N1CCCOCC1

$$$$

  CDD

  0  0  0  0  0  0            999 V2000
M  END
> <Molecule Name>
CVD-0001605

> <SMILES>
O=S1(=O)CCOCCN1CN1CCN(CC1)C#N

$$$$

  CDD

  0  0  0  0  0  0            999 V2000
M  END
> <Molecule Name>
CVD-0001604

> <SMILES>
CC(=O)N1CCN(CC1)C(F)(F)N1CCCOCC1

$$$$

  CDD

  0  0  0  0  0  0            999 V2000
M  END
> <Molecule Name>
CVD-0001603

> <SMILES>
FCC(=O)N1CCN(CN2CCCOCC2)CC1

$$$$

  CDD

  0  0  0  0  0  0            999 V2000
M  END
> <Molecule Name>
CVD-0001602

> <SMILES>
CC(=O)N1CCN(CC1)C(=O)N1CCCOCC1

$$$$

  CDD

  0  0  0  0  0  0            999 V2000
M  END
> <Molecule Name>
CVD-0001601

> <SMILES>
N#CN1CCN(CC1)C1(CCO1)N1CCCOCC1

$$$$

  CDD

  0  0  0  0  0  0            999 V2000
M  END
> <Molecule Name>
CVD-0001600

> <SMILES>
O=C(N1CCN(CC1)C#N)N1CCCOCC1

$$$$

  CDD

  0  0  0  0  0  0            999 V2000
M  END
> <Molecule Name>
CVD-0001599

> <SMILES>
FC(F)(N1CCN(CC1)C#N)N1CCCOCC1

$$$$

  CDD

  0  0  0  0  0  0            999 V2000
M  END
> <Molecule Name>
CVD-0001598

> <SMILES>
N#CN1CCN(CC1)C1(CC1)N1CCCOCC1

$$$$

  CDD

  0  0  0  0  0  0            999 V2000
M  END
> <Molecule Name>
CVD-0001597

> <SMILES>
CC1CN(CN2CCCOCC2)CCN1C#N

$$$$

  CDD

  0  0  0  0  0  0            999 V2000
M  END
> <Molecule Name>
CVD-0001596

> <SMILES>
CC1CN(CCN1CN1CCCOCC1)C#N

$$$$

  CDD

  0  0  0  0  0  0            999 V2000
M  END
> <Molecule Name>
CVD-0001595

> <SMILES>
N#CN1CCN(CN2CCCOCC2)CC1

$$$$

  CDD

  0  0  0  0  0  0            999 V2000
M  END
> <Molecule Name>
CVD-0001594

> <SMILES>
CC1CN(CN2CCCOCC2)CCN1C(=O)C=C

$$$$

  CDD

  0  0  0  0  0  0            999 V2000
M  END
> <Molecule Name>
CVD-0001593

> <SMILES>
CC1CN(CCN1CN1CCCOCC1)C(=O)C=C

$$$$

  CDD

  0  0  0  0  0  0            999 V2000
M  END
> <Molecule Name>
CVD-0001592

> <SMILES>
CC(=O)N1CCN(CN2CCCOCC2)CC1

$$$$

  CDD

  0  0  0  0  0  0            999 V2000
M  END
> <Molecule Name>
CVD-0001591

> <SMILES>
C\C(O)=C(\C#N)C(=O)Nc1ccccc1

$$$$

  CDD

  0  0  0  0  0  0            999 V2000
M  END
> <Molecule Name>
CVD-0001590

> <SMILES>
CNC(=O)CCc1nn(C)c(c1Cl)-c1ccc(s1)C(=O)NNC(=O)CCl

$$$$

  CDD

  0  0  0  0  0  0            999 V2000
M  END
> <Molecule Name>
CVD-0001589

> <SMILES>
CNC(=O)CCc1nn(C)c2C3SC(CN3CCc12)C(=O)NNC(=O)CCl

$$$$

  CDD

  0  0  0  0  0  0            999 V2000
M  END
> <Molecule Name>
CVD-0001588

> <SMILES>
CCC(=O)NC[C@@H]1C[C@H]1c1cccc2OCCc12

$$$$

  CDD

  0  0  0  0  0  0            999 V2000
M  END
> <Molecule Name>
CVD-0001587

> <SMILES>
COc1ccc2cccc(CCNC(C)=O)c2c1

$$$$

  CDD

  0  0  0  0  0  0            999 V2000
M  END
> <Molecule Name>
CVD-0001586

> <SMILES>
CCC(=O)NCC[C@@H]1CCc2ccc3OCCc3c12

$$$$

  CDD

  0  0  0  0  0  0            999 V2000
M  END
> <Molecule Name>
CVD-0001585

> <SMILES>
COc1cc2c(c[nH]c2cc1Cl)[C@@H](C)CNC(C)=O

$$$$

  CDD

  0  0  0  0  0  0            999 V2000
M  END
> <Molecule Name>
CVD-0001584

> <SMILES>
CC(=O)NCCc1c[nH]c2c(CN3CCN(CC3)C(C)=O)cc(cc12)C#N

$$$$

  CDD

  0  0  0  0  0  0            999 V2000
M  END
> <Molecule Name>
CVD-0001583

> <SMILES>
CN(C)CCc1c[nH]c2ccc(O)cc12

$$$$

  CDD

  0  0  0  0  0  0            999 V2000
M  END
> <Molecule Name>
CVD-0001582

> <SMILES>
COc1ccc2[nH]c3CNCCc3c2c1

$$$$

  CDD

  0  0  0  0  0  0            999 V2000
M  END
> <Molecule Name>
CVD-0001581

> <SMILES>
COc1ccc2[nH]cc(CCN)c2c1

$$$$

  CDD

  0  0  0  0  0  0            999 V2000
M  END
> <Molecule Name>
CVD-0001580

> <SMILES>
CC(=O)NCCc1c[nH]c2ccc(OC3OC(C(O)C(O)C3O)C(O)=O)cc12

$$$$

  CDD

  0  0  0  0  0  0            999 V2000
M  END
> <Molecule Name>
CVD-0001579

> <SMILES>
CC(=O)NCCc1c[nH]c2ccc(OS(O)(=O)=O)cc12

$$$$

  CDD

  0  0  0  0  0  0            999 V2000
M  END
> <Molecule Name>
CVD-0001578

> <SMILES>
CC(=O)NCCc1c[nH]c2ccc(O)cc12

$$$$

  CDD

  0  0  0  0  0  0            999 V2000
M  END
> <Molecule Name>
CVD-0001577

> <SMILES>
COC1(OC(Oc2ccc3cc[nH]c3c2)C(O)C(O)(CCNC(C)=O)C1O)C(O)=O

$$$$

  CDD

  0  0  0  0  0  0            999 V2000
M  END
> <Molecule Name>
CVD-0001576

> <SMILES>
COc1cc2c(CCNC(C)=O)c[nH]c2cc1OS(O)(=O)=O

$$$$

  CDD

  0  0  0  0  0  0            999 V2000
M  END
> <Molecule Name>
CVD-0001575

> <SMILES>
CN(C)CCc1c[nH]c2ccccc12

$$$$

  CDD

  0  0  0  0  0  0            999 V2000
M  END
> <Molecule Name>
CVD-0001574

> <SMILES>
COc1cc2c(CCNC(C)=O)c[nH]c2cc1O

$$$$

  CDD

  0  0  0  0  0  0            999 V2000
M  END
> <Molecule Name>
CVD-0001573

> <SMILES>
CC(=O)NCCc1c[nH]c2c(cc(cc12)C#N)C1CN(Cc2ccccc12)C(C)=O

$$$$

  CDD

  0  0  0  0  0  0            999 V2000
M  END
> <Molecule Name>
CVD-0001572

> <SMILES>
NS(=O)(=O)c1cc2cc(ccc2[nH]1)C#N

$$$$

  CDD

  0  0  0  0  0  0            999 V2000
M  END
> <Molecule Name>
CVD-0001571

> <SMILES>
COc1c(O)cc2[nH]cc(CCNC(C)=O)c2c1O

$$$$

  CDD

  0  0  0  0  0  0            999 V2000
M  END
> <Molecule Name>
CVD-0001570

> <SMILES>
Oc1ccc2[nH]cc(CC=O)c2c1

$$$$

  CDD

  0  0  0  0  0  0            999 V2000
M  END
> <Molecule Name>
CVD-0001569

> <SMILES>
COc1cc2c3CCN(C(C)=O)c3[nH]c2cc1O

$$$$

  CDD

  0  0  0  0  0  0            999 V2000
M  END
> <Molecule Name>
CVD-0001568

> <SMILES>
CC(=O)N1CCc2c1[nH]c1ccc(OC3OC(C(O)C(O)C3O)C(O)=O)cc21

$$$$

  CDD

  0  0  0  0  0  0            999 V2000
M  END
> <Molecule Name>
CVD-0001567

> <SMILES>
COc1ccc2[nH]c3N(CCc3c2c1)C(C)=O

$$$$

  CDD

  0  0  0  0  0  0            999 V2000
M  END
> <Molecule Name>
CVD-0001566

> <SMILES>
COc1ccc2n(cc(CCNC(C)=O)c2c1)C1OC(C(O)C(O)C1O)C(O)=O

$$$$

  CDD

  0  0  0  0  0  0            999 V2000
M  END
> <Molecule Name>
CVD-0001565

> <SMILES>
COc1ccc2NCC(O)(CCNC(C)=O)c2c1

$$$$

  CDD

  0  0  0  0  0  0            999 V2000
M  END
> <Molecule Name>
CVD-0001564

> <SMILES>
COc1ccc2NC(=O)C(CCNC(C)=O)c2c1

$$$$

  CDD

  0  0  0  0  0  0            999 V2000
M  END
> <Molecule Name>
CVD-0001563

> <SMILES>
CC(=C)CCCc1c[nH]c2C3SC(CCCC(N)=N)CC3C(=O)Nc12

$$$$

  CDD

  0  0  0  0  0  0            999 V2000
M  END
> <Molecule Name>
CVD-0001562

> <SMILES>
CC(=O)NCCc1c[nH]c2c1cc(Cl)c1cc(CCCC(N)=N)sc21

$$$$

  CDD

  0  0  0  0  0  0            999 V2000
M  END
> <Molecule Name>
CVD-0001561

> <SMILES>
CC(=O)NCCc1c[nH]c2C3SC4(CC3C(=O)Nc12)CN(CCN4CC(N)=N)C(Cl)=O

$$$$

  CDD

  0  0  0  0  0  0            999 V2000
M  END
> <Molecule Name>
CVD-0001560

> <SMILES>
CC(C)C[C@H](NC(=O)[C@@H](NC(=O)c1cc(C)on1)C(C)C)C(=O)C[C@@H](C[C@@H]1CCNC1=O)\C=C\S(C)(=O)=O

$$$$

  CDD

  0  0  0  0  0  0            999 V2000
M  END
> <Molecule Name>
CVD-0001559

> <SMILES>
O=C(Cn1ccc2cc[nH]c2c1=O)NC(CC1CCNC1=O)C(=O)C(=O)NC12CC(C1)CC2

$$$$

  CDD

  0  0  0  0  0  0            999 V2000
M  END
> <Molecule Name>
CVD-0001558

> <SMILES>
O=C(Cn1ccc2OCNc2c1=O)NC(C(C#N)C1CCNC1=O)C(=O)C(=O)NC12CC(C1)CC2

$$$$

  CDD

  0  0  0  0  0  0            999 V2000
M  END
> <Molecule Name>
CVD-0001557

> <SMILES>
O=C(Cn1ccc2OCNc2c1=O)NC(CC1CCNC1=O)C(=O)C(=O)NC12CC(C1)CC2

$$$$

  CDD

  0  0  0  0  0  0            999 V2000
M  END
> <Molecule Name>
CVD-0001556

> <SMILES>
CC(=O)NC(C(=O)NC(Cc1cccnc1)C(=O)CCl)c1ccccc1CS(F)(=O)=O

$$$$

  CDD

  0  0  0  0  0  0            999 V2000
M  END
> <Molecule Name>
CVD-0001555

> <SMILES>
CC(=O)NC(C(=O)NC(CC1CCNC1=O)C(=O)CCl)c1ccccc1CS(F)(=O)=O

$$$$

  CDD

  0  0  0  0  0  0            999 V2000
M  END
> <Molecule Name>
CVD-0001554

> <SMILES>
FS(=O)(=O)Cc1ccccc1NC(=O)NC(CC1CCNC1=O)C(=O)CCl

$$$$

  CDD

  0  0  0  0  0  0            999 V2000
M  END
> <Molecule Name>
CVD-0001553

> <SMILES>
FS(=O)(=O)Cc1ccc(CN2CCN(CC2)C(=O)CCl)cc1

$$$$

  CDD

  0  0  0  0  0  0            999 V2000
M  END
> <Molecule Name>
CVD-0001552

> <SMILES>
FS(=O)(=O)Cc1ccccc1NC(=O)NC(Cc1cccnc1)C(=O)CCl

$$$$

  CDD

  0  0  0  0  0  0            999 V2000
M  END
> <Molecule Name>
CVD-0001551

> <SMILES>
FS(=O)(=O)Cc1ccccc1NC(=O)Nc1cccnc1

$$$$

  CDD

  0  0  0  0  0  0            999 V2000
M  END
> <Molecule Name>
CVD-0001550

> <SMILES>
O=C1Nc2ccccc2NC(=O)c2ccccc12

$$$$

  CDD

  0  0  0  0  0  0            999 V2000
M  END
> <Molecule Name>
CVD-0001549

> <SMILES>
CC(=O)N1Cc2ccccc2[C@@H]([C@H]1Cc1cccnc1)c1ccccc1

$$$$

  CDD

  0  0  0  0  0  0            999 V2000
M  END
> <Molecule Name>
CVD-0001548

> <SMILES>
Nc1ccc(CN(Nc2cccc(N)c2)c2cccc(c2)C(\F)=C\C=C2\OCNC=N2)cc1

$$$$

  CDD

  0  0  0  0  0  0            999 V2000
M  END
> <Molecule Name>
CVD-0001547

> <SMILES>
Cc1cccnc1NC(=O)c1cccc(c1)-c1ccc2C=NNNc2c1

$$$$

  CDD

  0  0  0  0  0  0            999 V2000
M  END
> <Molecule Name>
CVD-0001546

> <SMILES>
Fc1cccc(OC2C=C=CC=C2C(=O)NCc2cccc(c2)-c2cccc(=O)[nH]2)c1

$$$$

  CDD

  0  0  0  0  0  0            999 V2000
M  END
> <Molecule Name>
CVD-0001545

> <SMILES>
CN(N)C(=O)c1nc(F)cnc1O

$$$$

  CDD

  0  0  0  0  0  0            999 V2000
M  END
> <Molecule Name>
CVD-0001544

> <SMILES>
NC(=O)c1nc(F)c(C=O)nc1O

$$$$

  CDD

  0  0  0  0  0  0            999 V2000
M  END
> <Molecule Name>
CVD-0001543

> <SMILES>
CC(C)(C)c1nc(O)c(nc1F)C(N)=O

$$$$

  CDD

  0  0  0  0  0  0            999 V2000
M  END
> <Molecule Name>
CVD-0001542

> <SMILES>
NC(=O)c1nc(Br)cnc1O

$$$$

  CDD

  0  0  0  0  0  0            999 V2000
M  END
> <Molecule Name>
CVD-0001541

> <SMILES>
NC(=O)c1nc(Cl)cnc1O

$$$$

  CDD

  0  0  0  0  0  0            999 V2000
M  END
> <Molecule Name>
CVD-0001540

> <SMILES>
C(C1CN(Cc2cnc3ccccc3c2)C1)c1ccoc1

$$$$

  CDD

  0  0  0  0  0  0            999 V2000
M  END
> <Molecule Name>
CVD-0001539

> <SMILES>
C(C1CN(Cc2cc3ccccc3[nH]2)C1)c1ccco1

$$$$

  CDD

  0  0  0  0  0  0            999 V2000
M  END
> <Molecule Name>
CVD-0001538

> <SMILES>
C(N(Cc1cccc(CN2CCOCC2)c1)c1ccccc1)c1ccsc1

$$$$

  CDD

  0  0  0  0  0  0            999 V2000
M  END
> <Molecule Name>
CVD-0001537

> <SMILES>
O=S(=O)(Nc1nsc2ccccc12)c1ccc2ccccc2c1

$$$$

  CDD

  0  0  0  0  0  0            999 V2000
M  END
> <Molecule Name>
CVD-0001536

> <SMILES>
O=S1(=O)N(CCN2CCCCC2)Cc2ccccc12

$$$$

  CDD

  0  0  0  0  0  0            999 V2000
M  END
> <Molecule Name>
CVD-0001535

> <SMILES>
C(N1CC2(C1)CCOC2)c1cccc2ncccc12

$$$$

  CDD

  0  0  0  0  0  0            999 V2000
M  END
> <Molecule Name>
CVD-0001534

> <SMILES>
CN1CCN(CC1)C(=O)CNc1c(ccc2ccccc12)S(N)(=O)=O

$$$$

  CDD

  0  0  0  0  0  0            999 V2000
M  END
> <Molecule Name>
CVD-0001533

> <SMILES>
C(N1CC(C1)Oc1ccccc1)c1c[nH]cn1

$$$$

  CDD

  0  0  0  0  0  0            999 V2000
M  END
> <Molecule Name>
CVD-0001532

> <SMILES>
CCNCc1cn(CC(=O)N2CCN(C)CC2)nn1

$$$$

  CDD

  0  0  0  0  0  0            999 V2000
M  END
> <Molecule Name>
CVD-0001531

> <SMILES>
CCc1ccc(CN2CCN(CCc3ccns3)CC2)cc1

$$$$

  CDD

  0  0  0  0  0  0            999 V2000
M  END
> <Molecule Name>
CVD-0001530

> <SMILES>
CS(=O)(=O)c1ccc(CNc2nc3ccccc3[nH]2)s1

$$$$

  CDD

  0  0  0  0  0  0            999 V2000
M  END
> <Molecule Name>
CVD-0001529

> <SMILES>
CN1CCN(CC1)C(=O)CNCc1cc2ccc(C)cc2[nH]1

$$$$

  CDD

  0  0  0  0  0  0            999 V2000
M  END
> <Molecule Name>
CVD-0001528

> <SMILES>
Cc1ccnc(CN2CCCC3(CCOC3)C2)c1

$$$$

  CDD

  0  0  0  0  0  0            999 V2000
M  END
> <Molecule Name>
CVD-0001527

> <SMILES>
O=C(N1CCOC(CN2CCOCC2)C1)c1cc2sccc2s1

$$$$

  CDD

  0  0  0  0  0  0            999 V2000
M  END
> <Molecule Name>
CVD-0001526

> <SMILES>
O=C(Nc1ccccc1)N1CCC(CC1)N1CC(c2ccccc2)c2ccccc2C1

$$$$

  CDD

  0  0  0  0  0  0            999 V2000
M  END
> <Molecule Name>
CVD-0001525

> <SMILES>
O=C(CN1CC(c2ccccc2)c2ccccc2C1)N1CC(c2ccccc2)c2ccccc2C1

$$$$

  CDD

  0  0  0  0  0  0            999 V2000
M  END
> <Molecule Name>
CVD-0001524

> <SMILES>
CC1CN(CCO1)C(=O)N1CC(c2ccccc2)c2ccccc2C1

$$$$

  CDD

  0  0  0  0  0  0            999 V2000
M  END
> <Molecule Name>
CVD-0001523

> <SMILES>
Cc1ccc(NC(=O)CN2CC(c3ccccc3)c3ccccc3C2)cc1N1CCCC1=O

$$$$

  CDD

  0  0  0  0  0  0            999 V2000
M  END
> <Molecule Name>
CVD-0001522

> <SMILES>
Clc1ccc(cc1)S(=O)(=O)N1CCN(CC1)C(=O)C(=O)N1CC(c2ccccc2)c2ccccc2C1

$$$$

  CDD

  0  0  0  0  0  0            999 V2000
M  END
> <Molecule Name>
CVD-0001521

> <SMILES>
O=C(N1CC(c2ccccc2)c2ccccc2C1)c1cccc2ccccc12

$$$$

  CDD

  0  0  0  0  0  0            999 V2000
M  END
> <Molecule Name>
CVD-0001520

> <SMILES>
O=C(CC(=O)N1CCC(CC1)C(=O)N1CCCCC1)N1CCC(CC1)C(=O)N1CCCCC1

$$$$

  CDD

  0  0  0  0  0  0            999 V2000
M  END
> <Molecule Name>
CVD-0001519

> <SMILES>
ClCC(=O)N1CC2C(=CC=C2C2CN(Cc3ccccc23)C(=O)CCl)C(C1)c1ccccc1

$$$$

  CDD

  0  0  0  0  0  0            999 V2000
M  END
> <Molecule Name>
CVD-0001518

> <SMILES>
CC(=O)NCCc1c[nH]c2ccc(CC(=O)N3CCN(CC3)S(=O)(=O)c3cc(C)ccc3C)cc12

$$$$

  CDD

  0  0  0  0  0  0            999 V2000
M  END
> <Molecule Name>
CVD-0001517

> <SMILES>
CS(=O)(=O)Nc1cccc(c1)C(=O)CC(=O)N(C1CS(=O)(=O)C=C1)c1ccc(F)cc1

$$$$

  CDD

  0  0  0  0  0  0            999 V2000
M  END
> <Molecule Name>
CVD-0001516

> <SMILES>
Oc1ccccc1NC(=O)C1CCN(CC1)N1CC(c2ccccc2)c2ccccc2C1

$$$$

  CDD

  0  0  0  0  0  0            999 V2000
M  END
> <Molecule Name>
CVD-0001515

> <SMILES>
C1C(c2ccccc2)c2ccccc2CN1c1ccc(Oc2ncccn2)cc1

$$$$

  CDD

  0  0  0  0  0  0            999 V2000
M  END
> <Molecule Name>
CVD-0001514

> <SMILES>
Cc1ccc(C)c(c1)S(=O)(=O)N1CCN(CC1)C(=O)N1CCCC(C1)c1nc2ccccc2s1

$$$$

  CDD

  0  0  0  0  0  0            999 V2000
M  END
> <Molecule Name>
CVD-0001513

> <SMILES>
Cc1cc(ccc1CS(N)(=O)=O)N1CC(c2ccccc2)c2ccccc2C1

$$$$

  CDD

  0  0  0  0  0  0            999 V2000
M  END
> <Molecule Name>
CVD-0001512

> <SMILES>
NS(=O)(=O)c1ccc(cc1)C(=O)N1CC(c2ccccc2)c2ccccc2C1

$$$$

  CDD

  0  0  0  0  0  0            999 V2000
M  END
> <Molecule Name>
CVD-0001511

> <SMILES>
Oc1ccccc1NC(=O)C1CCN(CC1)C(=O)CCC(=O)N1CC(c2ccccc2)c2ccccc2C1

$$$$

  CDD

  0  0  0  0  0  0            999 V2000
M  END
> <Molecule Name>
CVD-0001510

> <SMILES>
NS(=O)(=O)c1ccc2CCCN(CC(=O)N3CC(c4ccccc4)c4ccccc4C3)c2c1

$$$$

  CDD

  0  0  0  0  0  0            999 V2000
M  END
> <Molecule Name>
CVD-0001509

> <SMILES>
Cc1nc(c(NC(=O)C(=O)N2CCC(CC2)C(=O)Nc2ccccc2O)s1)-c1ccccc1

$$$$

  CDD

  0  0  0  0  0  0            999 V2000
M  END
> <Molecule Name>
CVD-0001508

> <SMILES>
CN1CCCc2ccc(cc12)S(=O)(=O)C(=O)N1CC(c2ccccc2)c2ccccc2C1

$$$$

  CDD

  0  0  0  0  0  0            999 V2000
M  END
> <Molecule Name>
CVD-0001507

> <SMILES>
CCNc1ncc(cc1CNc1cc(O)no1)C#N

$$$$

  CDD

  0  0  0  0  0  0            999 V2000
M  END
> <Molecule Name>
CVD-0001506

> <SMILES>
CCNc1ncc(cc1CNc1ccno1)C#N

$$$$

  CDD

  0  0  0  0  0  0            999 V2000
M  END
> <Molecule Name>
CVD-0001505

> <SMILES>
CCNc1ncc(cc1CN1CCC(O)CC1)C#N

$$$$

  CDD

  0  0  0  0  0  0            999 V2000
M  END
> <Molecule Name>
CVD-0001504

> <SMILES>
N#C\N=C(\Nc1cccnc1)Nc1cncc(c1)C#N

$$$$

  CDD

  0  0  0  0  0  0            999 V2000
M  END
> <Molecule Name>
CVD-0001503

> <SMILES>
O=c1c(Nc2cccnc2)c(Nc2cncc(c2)C#N)c1=O

$$$$

  CDD

  0  0  0  0  0  0            999 V2000
M  END
> <Molecule Name>
CVD-0001502

> <SMILES>
OC(=O)CCC1=CC=NC2NC=C(NC(=O)Nc3cccc(O)c3)C12

$$$$

  CDD

  0  0  0  0  0  0            999 V2000
M  END
> <Molecule Name>
CVD-0001501

> <SMILES>
OC(=O)CC1=CC2C(NC=C2NC(=O)Nc2cccc(O)c2)N=C1

$$$$

  CDD

  0  0  0  0  0  0            999 V2000
M  END
> <Molecule Name>
CVD-0001500

> <SMILES>
OC(=O)CCC1=CC2C(NC=C2NC(=O)Nc2cccc(O)c2)N=C1

$$$$

  CDD

  0  0  0  0  0  0            999 V2000
M  END
> <Molecule Name>
CVD-0001499

> <SMILES>
OC(=O)CCCc1cncc(NC(=O)Nc2cccc(O)c2)c1

$$$$

  CDD

  0  0  0  0  0  0            999 V2000
M  END
> <Molecule Name>
CVD-0001498

> <SMILES>
CC1CC(O)CC(C1)NC(=O)Nc1cncc(CCCC(N)=O)c1

$$$$

  CDD

  0  0  0  0  0  0            999 V2000
M  END
> <Molecule Name>
CVD-0001497

> <SMILES>
NC(=O)CCCc1cncc(NC(=O)Nc2cccc(O)c2)c1

$$$$

  CDD

  0  0  0  0  0  0            999 V2000
M  END
> <Molecule Name>
CVD-0001496

> <SMILES>
OC(=O)CCCc1cncc(NC(=O)Nc2cccc(Cl)c2)c1

$$$$

  CDD

  0  0  0  0  0  0            999 V2000
M  END
> <Molecule Name>
CVD-0001495

> <SMILES>
OC(=O)CCCc1cncc(NC(=O)Nc2cc(O)ccc2C2CN(Cc3ccc(O)cc23)C(=O)CCl)c1

$$$$

  CDD

  0  0  0  0  0  0            999 V2000
M  END
> <Molecule Name>
CVD-0001494

> <SMILES>
OC(=O)c1cnc2[nH]c(NC(=O)Nc3cc(O)ccc3C3CN(Cc4ccccc34)C(=O)CCl)cc2c1

$$$$

  CDD

  0  0  0  0  0  0            999 V2000
M  END
> <Molecule Name>
CVD-0001493

> <SMILES>
OC(=O)c1cnc2[nH]c(NC(=O)Nc3cc(O)ccc3C3CN(Cc4ccc(O)cc34)C(=O)CCl)cc2c1

$$$$

  CDD

  0  0  0  0  0  0            999 V2000
M  END
> <Molecule Name>
CVD-0001492

> <SMILES>
OC(=O)c1cnc2[nH]c(NC(=O)Nc3cc(O)ccc3C3CN(CC4CCCCC34)C(=O)CCl)cc2c1

$$$$

  CDD

  0  0  0  0  0  0            999 V2000
M  END
> <Molecule Name>
CVD-0001491

> <SMILES>
Oc1ccc(C2CN(CC3CCCCC23)C(=O)CCl)c(NC(=O)Nc2cc3cccnc3[nH]2)c1

$$$$

  CDD

  0  0  0  0  0  0            999 V2000
M  END
> <Molecule Name>
CVD-0001490

> <SMILES>
OC(=O)CCCc1cncc(NC(=O)Nc2cc(O)ccc2C2CN(CC3CCCCC23)C(=O)CCl)c1

$$$$

  CDD

  0  0  0  0  0  0            999 V2000
M  END
> <Molecule Name>
CVD-0001489

> <SMILES>
OC(=O)CCCc1cncc(NC(=O)Nc2cc(O)ccc2C2CN(CCN2)C(=O)CCl)c1

$$$$

  CDD

  0  0  0  0  0  0            999 V2000
M  END
> <Molecule Name>
CVD-0001488

> <SMILES>
CCNc1ccc(cc1CN1CCN(CC1)C(C)=O)C#CC

$$$$

  CDD

  0  0  0  0  0  0            999 V2000
M  END
> <Molecule Name>
CVD-0001487

> <SMILES>
CC(=O)N1CCN(Cc2cc(ccc2NC2CC2)C#N)CC1

$$$$

  CDD

  0  0  0  0  0  0            999 V2000
M  END
> <Molecule Name>
CVD-0001486

> <SMILES>
CCNc1ccc(cc1C(=O)N1CCN(CC1)C(C)=O)C#N

$$$$

  CDD

  0  0  0  0  0  0            999 V2000
M  END
> <Molecule Name>
CVD-0001485

> <SMILES>
CCNc1ncc(cc1CN1CCCN(CC1)C(C)=O)C#N

$$$$

  CDD

  0  0  0  0  0  0            999 V2000
M  END
> <Molecule Name>
CVD-0001484

> <SMILES>
CCNc1ncc(cc1CN1C[C@H]2CN(C[C@H]2C1)C(C)=O)C#N

$$$$

  CDD

  0  0  0  0  0  0            999 V2000
M  END
> <Molecule Name>
CVD-0001483

> <SMILES>
CCNc1ncc(cc1CN1CC2(C1)CN(C2)C(C)=O)C#N

$$$$

  CDD

  0  0  0  0  0  0            999 V2000
M  END
> <Molecule Name>
CVD-0001482

> <SMILES>
CC(=O)N1CCN(Cc2cc(Cl)cnc2NCCO)CC1

$$$$

  CDD

  0  0  0  0  0  0            999 V2000
M  END
> <Molecule Name>
CVD-0001481

> <SMILES>
CC#Cc1cnc(Nc2ccccc2)c(CN2CCN(CC2)C(C)=O)c1

$$$$

  CDD

  0  0  0  0  0  0            999 V2000
M  END
> <Molecule Name>
CVD-0001480

> <SMILES>
CC(=O)N1CCN(Cc2cc(ccc2CNC(=O)N2CCOCC2)C#N)CC1

$$$$

  CDD

  0  0  0  0  0  0            999 V2000
M  END
> <Molecule Name>
CVD-0001479

> <SMILES>
CC(=O)NCCNCc1cc(cnc1NC1CC1)C#N

$$$$

  CDD

  0  0  0  0  0  0            999 V2000
M  END
> <Molecule Name>
CVD-0001478

> <SMILES>
CCNc1ccc(F)cc1CN1CCN(CC1)C(C)=O

$$$$

  CDD

  0  0  0  0  0  0            999 V2000
M  END
> <Molecule Name>
CVD-0001477

> <SMILES>
CCNc1ncc(cc1CN1CCN(CC1)C(C)=O)C#N

$$$$

  CDD

  0  0  0  0  0  0            999 V2000
M  END
> <Molecule Name>
CVD-0001476

> <SMILES>
C=CC(=O)N1CCN(CC2=CNC3C=CC(=CC23)C#N)CC1

$$$$

  CDD

  0  0  0  0  0  0            999 V2000
M  END
> <Molecule Name>
CVD-0001475

> <SMILES>
Fc1cccc(OCCCNc2ccc(cn2)C#N)c1S(=O)(=O)NC1CN(C1)C(=O)C=C

$$$$

  CDD

  0  0  0  0  0  0            999 V2000
M  END
> <Molecule Name>
CVD-0001474

> <SMILES>
Fc1cccc(OCCCNc2ccc(cn2)C#N)c1S(=O)(=O)N1CC(C1)NC(=O)C=C

$$$$

  CDD

  0  0  0  0  0  0            999 V2000
M  END
> <Molecule Name>
CVD-0001473

> <SMILES>
C=CC(=O)NC1CN(C1)S(=O)(=O)c1ccccc1-c1ccc(Nc2ccc(cn2)C#N)cc1

$$$$

  CDD

  0  0  0  0  0  0            999 V2000
M  END
> <Molecule Name>
CVD-0001472

> <SMILES>
C=CC(=O)N1CC(C1)NS(=O)(=O)c1ccccc1-c1ccc(Nc2ccc(cn2)C#N)cc1

$$$$

  CDD

  0  0  0  0  0  0            999 V2000
M  END
> <Molecule Name>
CVD-0001471

> <SMILES>
C=CC(=O)N1C[C@H]2CN(C[C@H]2C1)S(=O)(=O)c1ccccc1-c1ccc(Nc2ccc(cn2)C#N)cc1

$$$$

  CDD

  0  0  0  0  0  0            999 V2000
M  END
> <Molecule Name>
CVD-0001470

> <SMILES>
Fc1cccc(OCCCNc2ccc(cn2)C#N)c1S(=O)(=O)N1C[C@@H]2CN(C[C@@H]2C1)C(=O)C=C

$$$$

  CDD

  0  0  0  0  0  0            999 V2000
M  END
> <Molecule Name>
CVD-0001469

> <SMILES>
C=CC(=O)N1CCN(CC1)S(=O)(=O)c1ccccc1-c1ccc(Nc2ccc(cn2)C#N)cc1

$$$$

  CDD

  0  0  0  0  0  0            999 V2000
M  END
> <Molecule Name>
CVD-0001468

> <SMILES>
CN(CCN(C)C(=O)C=C)CC1=CNC2C=CC(=CC12)C#N

$$$$

  CDD

  0  0  0  0  0  0            999 V2000
M  END
> <Molecule Name>
CVD-0001467

> <SMILES>
C=CC(=O)N1C[C@@H]2CN(CC3=CNC4C=CC(=CC34)C#N)C[C@@H]2C1

$$$$

  CDD

  0  0  0  0  0  0            999 V2000
M  END
> <Molecule Name>
CVD-0001466

> <SMILES>
C=CC(=O)NC1CN(CC2=CNC3C=CC(=CC23)C#N)C1

$$$$

  CDD

  0  0  0  0  0  0            999 V2000
M  END
> <Molecule Name>
CVD-0001465

> <SMILES>
C=CC(=O)N1CC(C1)NCC1=CNC2C=CC(=CC12)C#N

$$$$

  CDD

  0  0  0  0  0  0            999 V2000
M  END
> <Molecule Name>
CVD-0001464

> <SMILES>
Fc1cccc(OCCCNc2ccc(cn2)C#N)c1S(=O)(=O)N1CCN(CC1)C(=O)C=C

$$$$

  CDD

  0  0  0  0  0  0            999 V2000
M  END
> <Molecule Name>
CVD-0001463

> <SMILES>
NC(=O)Cc1c[nH]c2c(CN3CCN(CC3)C(=O)C=C)cccc12

$$$$

  CDD

  0  0  0  0  0  0            999 V2000
M  END
> <Molecule Name>
CVD-0001462

> <SMILES>
CN(C)CCCC(=O)NCCc1c[nH]c2c(CN3CCN(CC3)C(=O)C=C)cccc12

$$$$

  CDD

  0  0  0  0  0  0            999 V2000
M  END
> <Molecule Name>
CVD-0001461

> <SMILES>
CS(=O)(=O)NCCc1c[nH]c2c(CN3CCN(CC3)C(=O)C=C)cccc12

$$$$

  CDD

  0  0  0  0  0  0            999 V2000
M  END
> <Molecule Name>
CVD-0001460

> <SMILES>
C=CC(=O)N1CCN(Cc2cccc3c(CCNC(=O)[C@@H]4CCCN4)c[nH]c23)CC1

$$$$

  CDD

  0  0  0  0  0  0            999 V2000
M  END
> <Molecule Name>
CVD-0001459

> <SMILES>
CC(=O)NCCc1c[nH]c2c(CN3CCN(CC3)C(=O)C=C)cccc12

$$$$

  CDD

  0  0  0  0  0  0            999 V2000
M  END
> <Molecule Name>
CVD-0001458

> <SMILES>
C=CC(=O)N1C[C@@H]2CN(Cc3cccc4c(CCNC(=O)c5ccc[nH]5)c[nH]c34)C[C@@H]2C1

$$$$

  CDD

  0  0  0  0  0  0            999 V2000
M  END
> <Molecule Name>
CVD-0001457

> <SMILES>
C=CC(=O)NC1CN(Cc2cccc3c(CCNC(=O)c4ccc[nH]4)c[nH]c23)C1

$$$$

  CDD

  0  0  0  0  0  0            999 V2000
M  END
> <Molecule Name>
CVD-0001456

> <SMILES>
C=CC(=O)N1CC(C1)NCc1cccc2c(CCNC(=O)c3ccc[nH]3)c[nH]c12

$$$$

  CDD

  0  0  0  0  0  0            999 V2000
M  END
> <Molecule Name>
CVD-0001455

> <SMILES>
NC(=O)Cc1c[nH]c2c(CNC3CN(C3)C(=O)C=C)cccc12

$$$$

  CDD

  0  0  0  0  0  0            999 V2000
M  END
> <Molecule Name>
CVD-0001454

> <SMILES>
C=CC(=O)N1CCN(Cc2cccc3c(CCNC(=O)c4ccc[nH]4)c[nH]c23)CC1

$$$$

  CDD

  0  0  0  0  0  0            999 V2000
M  END
> <Molecule Name>
CVD-0001453

> <SMILES>
CC(=O)N1CCN(CS(=O)(=O)Nc2cccc(c2)S(N)(=O)=O)CC1

$$$$

  CDD

  0  0  0  0  0  0            999 V2000
M  END
> <Molecule Name>
CVD-0001452

> <SMILES>
CC(=O)N1CCN(Cc2cccc(\C=C\S(N)(=O)=O)c2)CC1

$$$$

  CDD

  0  0  0  0  0  0            999 V2000
M  END
> <Molecule Name>
CVD-0001451

> <SMILES>
CC(=O)N1CCN(CC(=O)Nc2cccc(c2)S(N)(=O)=O)CC1

$$$$

  CDD

  0  0  0  0  0  0            999 V2000
M  END
> <Molecule Name>
CVD-0001450

> <SMILES>
CC(=O)N1CCN(CC(=O)c2cccc(CS(N)(=O)=O)c2)CC1

$$$$

  CDD

  0  0  0  0  0  0            999 V2000
M  END
> <Molecule Name>
CVD-0001449

> <SMILES>
CC(=O)N1CCN(Cc2ccc3ccc(cc3n2)S(N)(=O)=O)CC1

$$$$

  CDD

  0  0  0  0  0  0            999 V2000
M  END
> <Molecule Name>
CVD-0001448

> <SMILES>
CC(=O)N1CCN(Cc2ccc3c(c[nH]c3c2)S(N)(=O)=O)CC1

$$$$

  CDD

  0  0  0  0  0  0            999 V2000
M  END
> <Molecule Name>
CVD-0001447

> <SMILES>
CC(=O)N1CCN(Cc2ccc3cc([nH]c3c2)S(N)(=O)=O)CC1

$$$$

  CDD

  0  0  0  0  0  0            999 V2000
M  END
> <Molecule Name>
CVD-0001446

> <SMILES>
CC(=O)N1CCN(Cc2cccc(CCS(N)(=O)=O)c2)CC1

$$$$

  CDD

  0  0  0  0  0  0            999 V2000
M  END
> <Molecule Name>
CVD-0001445

> <SMILES>
CC(=O)N1CCN(C\C=C\C(=O)c2ccc(cc2)S(N)(=O)=O)CC1

$$$$

  CDD

  0  0  0  0  0  0            999 V2000
M  END
> <Molecule Name>
CVD-0001444

> <SMILES>
CC(=O)N1CCN(Cc2ccc3ccc(cc3c2)S(N)(=O)=O)CC1

$$$$

  CDD

  0  0  0  0  0  0            999 V2000
M  END
> <Molecule Name>
CVD-0001443

> <SMILES>
CCO

$$$$

  CDD

  0  0  0  0  0  0            999 V2000
M  END
> <Molecule Name>
CVD-0001442

> <SMILES>
ClCCN1CCC(CC1)C(=O)Nc1ccccc1

$$$$

  CDD

  0  0  0  0  0  0            999 V2000
M  END
> <Molecule Name>
CVD-0001441

> <SMILES>
OB(O)CC(=O)N1CCC(CC1)C(=O)Nc1ccccc1

$$$$

  CDD

  0  0  0  0  0  0            999 V2000
M  END
> <Molecule Name>
CVD-0001440

> <SMILES>
O=C(Nc1ccccc1)C1CCN(CC1)C(=O)C1CO1

$$$$

  CDD

  0  0  0  0  0  0            999 V2000
M  END
> <Molecule Name>
CVD-0001439

> <SMILES>
O=C(Nc1ccccc1)N1CCc2sccc2C1

$$$$

  CDD

  0  0  0  0  0  0            999 V2000
M  END
> <Molecule Name>
CVD-0001438

> <SMILES>
O=C(Nc1ccccc1)C1CCc2sccc2C1

$$$$

  CDD

  0  0  0  0  0  0            999 V2000
M  END
> <Molecule Name>
CVD-0001437

> <SMILES>
O=C(Nc1ccccc1)C1CCN(CC1)C(=O)C#C

$$$$

  CDD

  0  0  0  0  0  0            999 V2000
M  END
> <Molecule Name>
CVD-0001436

> <SMILES>
C=CC(=O)N1CCC(CC1)C(=O)Nc1ccccc1

$$$$

  CDD

  0  0  0  0  0  0            999 V2000
M  END
> <Molecule Name>
CVD-0001435

> <SMILES>
Fc1cccc(F)c1S(=O)(=O)N1CCN(CC1)C(=O)C#C

$$$$

  CDD

  0  0  0  0  0  0            999 V2000
M  END
> <Molecule Name>
CVD-0001434

> <SMILES>
OB(O)CN1CCN(CC1)S(=O)(=O)c1c(F)cccc1F

$$$$

  CDD

  0  0  0  0  0  0            999 V2000
M  END
> <Molecule Name>
CVD-0001433

> <SMILES>
OB(O)CN1CCC(CC1)C(=O)Nc1ccccc1

$$$$

  CDD

  0  0  0  0  0  0            999 V2000
M  END
> <Molecule Name>
CVD-0001432

> <SMILES>
OB(O)CC(=O)N1CCN(CC1)S(=O)(=O)c1c(F)cccc1F

$$$$

  CDD

  0  0  0  0  0  0            999 V2000
M  END
> <Molecule Name>
CVD-0001431

> <SMILES>
Fc1cccc(F)c1S(=O)(=O)N1CCN(CC1)C(=O)C1CO1

$$$$

  CDD

  0  0  0  0  0  0            999 V2000
M  END
> <Molecule Name>
CVD-0001430

> <SMILES>
Fc1cccc(F)c1S(=O)(=O)N1CCN(CCCl)CC1

$$$$

  CDD

  0  0  0  0  0  0            999 V2000
M  END
> <Molecule Name>
CVD-0001429

> <SMILES>
Fc1cccc(F)c1S(=O)(=O)N1CCc2sccc2C1

$$$$

  CDD

  0  0  0  0  0  0            999 V2000
M  END
> <Molecule Name>
CVD-0001428

> <SMILES>
Fc1cccc(F)c1S(=O)(=O)N1CCN(CC1)C(=O)C=C

$$$$

  CDD

  0  0  0  0  0  0            999 V2000
M  END
> <Molecule Name>
CVD-0001427

> <SMILES>
CC(=O)NCc1ccc([nH]1)C(=O)N(c1ccccc1)c1cccnc1

$$$$

  CDD

  0  0  0  0  0  0            999 V2000
M  END
> <Molecule Name>
CVD-0001426

> <SMILES>
Cc1nc(c(NCC(C2CCC(N2)c2cn(C)nn2)S(C)(=O)=O)s1)-c1ccccc1

$$$$

  CDD

  0  0  0  0  0  0            999 V2000
M  END
> <Molecule Name>
CVD-0001425

> <SMILES>
Cc1[nH]nc(c1C)-c1c[nH]c2c(cccc12)C1CC(CO)CC1C(=O)Nc1cccnc1

$$$$

  CDD

  0  0  0  0  0  0            999 V2000
M  END
> <Molecule Name>
CVD-0001424

> <SMILES>
Cc1cc(CC(O)C(=O)NCCCOCC2CN(CCC2O)c2ccc(cn2)C#N)no1

$$$$

  CDD

  0  0  0  0  0  0            999 V2000
M  END
> <Molecule Name>
CVD-0001423

> <SMILES>


$$$$

  CDD

  0  0  0  0  0  0            999 V2000
M  END
> <Molecule Name>
CVD-0001422

> <SMILES>
Clc1cc(NC(=N)Nc2cccnc2)cs1

$$$$

  CDD

  0  0  0  0  0  0            999 V2000
M  END
> <Molecule Name>
CVD-0001421

> <SMILES>
CC(=O)N1CCN(CNC(=N)Nc2csc(Cl)c2)CC1

$$$$

  CDD

  0  0  0  0  0  0            999 V2000
M  END
> <Molecule Name>
CVD-0001420

> <SMILES>
CC(=O)N1CCN(CNC(=N)Nc2ccc(F)cc2)CC1

$$$$

  CDD

  0  0  0  0  0  0            999 V2000
M  END
> <Molecule Name>
CVD-0001419

> <SMILES>
Fc1ccc(NC(=N)Nc2cccnc2)cc1

$$$$

  CDD

  0  0  0  0  0  0            999 V2000
M  END
> <Molecule Name>
CVD-0001418

> <SMILES>
FC(F)(F)c1cccc(c1)C(=O)c1ccsc1-c1cc2C[C@@H](Cc2c(c1)N([C@H]1CCS(=O)(=O)C1)C(=O)CCl)C#N

$$$$

  CDD

  0  0  0  0  0  0            999 V2000
M  END
> <Molecule Name>
CVD-0001417

> <SMILES>
Cc1nnc(C)n1[C@@H]1CN(Cc2cc(C)cc3cc(C)ccc23)C[C@@H](Cc2ccncn2)N(C1)C(=O)CCl

$$$$

  CDD

  0  0  0  0  0  0            999 V2000
M  END
> <Molecule Name>
CVD-0001416

> <SMILES>
C[C@H](NC(=O)[C@@H]1[C@@H](CC1(F)F)c1cccc2[C@@H]([C@@H](N(Cc12)C(=O)CCl)c1cc(NC(N)=O)ncn1)c1ccccc1)C(N)=O

$$$$

  CDD

  0  0  0  0  0  0            999 V2000
M  END
> <Molecule Name>
CVD-0001415

> <SMILES>
Cc1ccc2cc(cc(N([C@H]3CCS(=O)(=O)C3)C(=O)CCl)c2c1)-c1[nH]ccc1C(=O)c1ccc(C)c(Cl)c1

$$$$

  CDD

  0  0  0  0  0  0            999 V2000
M  END
> <Molecule Name>
CVD-0001414

> <SMILES>
CNC(=O)c1ccn2c(nnc2c1)-n1nccc1-c1cc2CC(C)(C)C(=O)c2c(c1)N([C@H]1CCS(=O)(=O)C1)C(=O)CCl

$$$$

  CDD

  0  0  0  0  0  0            999 V2000
M  END
> <Molecule Name>
CVD-0001413

> <SMILES>
CCCC(=O)c1ccsc1-c1cc(cc(c1)-c1ccc2OCCc2c1C(C)C)N([C@H]1CCS(=O)(=O)C1)C(=O)CCl

$$$$

  CDD

  0  0  0  0  0  0            999 V2000
M  END
> <Molecule Name>
CVD-0001412

> <SMILES>
Cc1cc(co1)-c1cccc(c1)[C@H]1[C@H](N(Cc2c(cccc12)C1CC(F)(F)C1)C(=O)CCl)c1cc(NC(N)=O)ncn1

$$$$

  CDD

  0  0  0  0  0  0            999 V2000
M  END
> <Molecule Name>
CVD-0001411

> <SMILES>
FC(F)(F)c1cccc(c1)C(=O)c1ccsc1-c1cc2CNC(=O)c2c(c1)N([C@H]1CCS(=O)(=O)C1)C(=O)CCl

$$$$

  CDD

  0  0  0  0  0  0            999 V2000
M  END
> <Molecule Name>
CVD-0001410

> <SMILES>
CN1CCOc2ccc(cc12)S(N)(=O)=O

$$$$

  CDD

  0  0  0  0  0  0            999 V2000
M  END
> <Molecule Name>
CVD-0001409

> <SMILES>
CN1CCS(=O)(=O)c2ccc(cc12)S(N)(=O)=O

$$$$

  CDD

  0  0  0  0  0  0            999 V2000
M  END
> <Molecule Name>
CVD-0001408

> <SMILES>
Fc1ccccc1S(=O)(=O)NCCc1ccncc1

$$$$

  CDD

  0  0  0  0  0  0            999 V2000
M  END
> <Molecule Name>
CVD-0001407

> <SMILES>
Fc1ccccc1-c1nc(Cc2ccncc2)co1

$$$$

  CDD

  0  0  0  0  0  0            999 V2000
M  END
> <Molecule Name>
CVD-0001406

> <SMILES>
ClCC(=O)Nc1cccc(c1)S(=O)(=O)N1CCSCC1

$$$$

  CDD

  0  0  0  0  0  0            999 V2000
M  END
> <Molecule Name>
CVD-0001405

> <SMILES>
ClCC(=O)Nc1cccc(c1)N1CCCS1(=O)=O

$$$$

  CDD

  0  0  0  0  0  0            999 V2000
M  END
> <Molecule Name>
CVD-0001404

> <SMILES>
Fc1cccc(c1)S(=O)(=O)N1CCN(CC1)C(=O)Cn1cccn1

$$$$

  CDD

  0  0  0  0  0  0            999 V2000
M  END
> <Molecule Name>
CVD-0001403

> <SMILES>
ClCC(=O)NC1CCOc2ccc(Cl)cc12

$$$$

  CDD

  0  0  0  0  0  0            999 V2000
M  END
> <Molecule Name>
CVD-0001402

> <SMILES>
CN1CCN(CC1)C(=O)Cc1n[nH]c2ncccc12

$$$$

  CDD

  0  0  0  0  0  0            999 V2000
M  END
> <Molecule Name>
CVD-0001401

> <SMILES>
ClCC(=O)N1CC(c2nc3ccccc3s2)c2ccccc2C1

$$$$

  CDD

  0  0  0  0  0  0            999 V2000
M  END
> <Molecule Name>
CVD-0001400

> <SMILES>
FC(F)(F)c1cccc(c1)S(=O)(=O)N1CCN(CC1)C(=O)CCl

$$$$

  CDD

  0  0  0  0  0  0            999 V2000
M  END
> <Molecule Name>
CVD-0001399

> <SMILES>
Fc1ccc(cc1)C1CN(CCO1)C(=O)Cn1cccn1

$$$$

  CDD

  0  0  0  0  0  0            999 V2000
M  END
> <Molecule Name>
CVD-0001398

> <SMILES>
ClCC(=O)NC1CCCc2ccc(Cl)cc12

$$$$

  CDD

  0  0  0  0  0  0            999 V2000
M  END
> <Molecule Name>
CVD-0001397

> <SMILES>
ClCC(=O)N1CCCC(C1)c1nc2ccccc2o1

$$$$

  CDD

  0  0  0  0  0  0            999 V2000
M  END
> <Molecule Name>
CVD-0001396

> <SMILES>
CS(=O)(=O)Nc1ccc(Oc2ncccc2C#N)cc1

$$$$

  CDD

  0  0  0  0  0  0            999 V2000
M  END
> <Molecule Name>
CVD-0001395

> <SMILES>
Cn1ccnc1-c1cccc(NS(C)(=O)=O)c1

$$$$

  CDD

  0  0  0  0  0  0            999 V2000
M  END
> <Molecule Name>
CVD-0001394

> <SMILES>
CS(=O)(=O)Nc1cccc(c1)-c1ncco1

$$$$

  CDD

  0  0  0  0  0  0            999 V2000
M  END
> <Molecule Name>
CVD-0001393

> <SMILES>
NS(=O)(=O)c1ccc(cc1)-c1ncco1

$$$$

  CDD

  0  0  0  0  0  0            999 V2000
M  END
> <Molecule Name>
CVD-0001392

> <SMILES>
Cn1ccnc1-c1ccc(cc1)S(N)(=O)=O

$$$$

  CDD

  0  0  0  0  0  0            999 V2000
M  END
> <Molecule Name>
CVD-0001391

> <SMILES>
O=C(Cc1c[nH]c2ncccc12)N1CCS(=O)(=O)CC1

$$$$

  CDD

  0  0  0  0  0  0            999 V2000
M  END
> <Molecule Name>
CVD-0001390

> <SMILES>
O=c1nc(Nc2cccnc2)[nH]c2ccccc12

$$$$

  CDD

  0  0  0  0  0  0            999 V2000
M  END
> <Molecule Name>
CVD-0001389

> <SMILES>
Cc1ccc(cc1NS(C)(=O)=O)C#N

$$$$

  CDD

  0  0  0  0  0  0            999 V2000
M  END
> <Molecule Name>
CVD-0001388

> <SMILES>
CC(=O)Nc1cc(ccc1C)C#N

$$$$

  CDD

  0  0  0  0  0  0            999 V2000
M  END
> <Molecule Name>
CVD-0001387

> <SMILES>
CS(=O)(=O)Nc1cnccc1C1CC1

$$$$

  CDD

  0  0  0  0  0  0            999 V2000
M  END
> <Molecule Name>
CVD-0001386

> <SMILES>
Cc1ccncc1NS(C)(=O)=O

$$$$

  CDD

  0  0  0  0  0  0            999 V2000
M  END
> <Molecule Name>
CVD-0001385

> <SMILES>
Cc1nccn1-c1cnccc1C

$$$$

  CDD

  0  0  0  0  0  0            999 V2000
M  END
> <Molecule Name>
CVD-0001384

> <SMILES>
CN1CC[Si](C)(C)c2ccc(cc12)S(N)(=O)=O

$$$$

  CDD

  0  0  0  0  0  0            999 V2000
M  END
> <Molecule Name>
CVD-0001383

> <SMILES>
NCC(N)C(O)=O

$$$$

  CDD

  0  0  0  0  0  0            999 V2000
M  END
> <Molecule Name>
CVD-0001382

> <SMILES>
NC(C(O)c1cccc(O)c1)C(O)=O

$$$$

  CDD

  0  0  0  0  0  0            999 V2000
M  END
> <Molecule Name>
CVD-0001381

> <SMILES>
OC(C(C(O)=O)n1cccc1)c1cccc(O)c1

$$$$

  CDD

  0  0  0  0  0  0            999 V2000
M  END
> <Molecule Name>
CVD-0001380

> <SMILES>
CC(C)(C)OC(=O)Nc1ccc([nH]c1=O)-c1cccc(CCC(=O)N[C@@H](C[C@@H]2CCNC2=O)C(=O)C(=O)N2CCN(CC2)S(=O)(=O)c2ccccc2)c1

$$$$

  CDD

  0  0  0  0  0  0            999 V2000
M  END
> <Molecule Name>
CVD-0001379

> <SMILES>
CC(C)(C)OC(=O)Nc1ccc([nH]c1=O)-c1cccc(CC(=O)N[C@@H](C[C@@H]2CCNC2=O)C(=O)C(=O)NC2CC2)c1

$$$$

  CDD

  0  0  0  0  0  0            999 V2000
M  END
> <Molecule Name>
CVD-0001378

> <SMILES>
CC(C)(C)OC(=O)Nc1ccc([nH]c1=O)-c1cccc(CCC(=O)N[C@@H](C[C@@H]2CCNC2=O)C(=O)C(=O)NC2CC2)c1

$$$$

  CDD

  0  0  0  0  0  0            999 V2000
M  END
> <Molecule Name>
CVD-0001377

> <SMILES>
CC(C)(C)OC(=O)Nc1ccc([nH]c1=O)-c1ccccc1CC(=O)N[C@@H](C[C@@H]1CCNC1=O)C(=O)C(=O)NC1CC1

$$$$

  CDD

  0  0  0  0  0  0            999 V2000
M  END
> <Molecule Name>
CVD-0001376

> <SMILES>
CC(C)(C)OC(=O)Nc1ccc([nH]c1=O)-c1ccccc1CCC(=O)N[C@@H](C[C@@H]1CCNC1=O)C(=O)C(=O)NC1CC1

$$$$

  CDD

  0  0  0  0  0  0            999 V2000
M  END
> <Molecule Name>
CVD-0001375

> <SMILES>
CC(C)(C)OC(=O)Nc1ccc([nH]c1=O)-c1ccccc1NC(=O)Nc1cccnc1

$$$$

  CDD

  0  0  0  0  0  0            999 V2000
M  END
> <Molecule Name>
CVD-0001374

> <SMILES>
O=C(Nc1cccnc1)Nc1ccccc1-c1cccc(=O)[nH]1

$$$$

  CDD

  0  0  0  0  0  0            999 V2000
M  END
> <Molecule Name>
CVD-0001373

> <SMILES>
O=c1cccc([nH]1)-c1ccccc1CCNS(=O)(=O)c1ccccc1

$$$$

  CDD

  0  0  0  0  0  0            999 V2000
M  END
> <Molecule Name>
CVD-0001372

> <SMILES>
CC(C)(C)OC(=O)Nc1ccc([nH]c1=O)-c1c(F)cccc1NC(=O)Nc1cccnc1

$$$$

  CDD

  0  0  0  0  0  0            999 V2000
M  END
> <Molecule Name>
CVD-0001371

> <SMILES>
CC(C)(C)OC(=O)Nc1ccc([nH]c1=O)-c1c(F)cccc1CCNS(=O)(=O)c1ccccc1

$$$$

  CDD

  0  0  0  0  0  0            999 V2000
M  END
> <Molecule Name>
CVD-0001370

> <SMILES>
Fc1cccc(NC(=O)Nc2cccnc2)c1-c1cccc(=O)[nH]1

$$$$

  CDD

  0  0  0  0  0  0            999 V2000
M  END
> <Molecule Name>
CVD-0001369

> <SMILES>
Fc1cccc(CCNS(=O)(=O)c2ccccc2)c1-c1cccc(=O)[nH]1

$$$$

  CDD

  0  0  0  0  0  0            999 V2000
M  END
> <Molecule Name>
CVD-0001368

> <SMILES>
O=C(Cc1cccc(c1)-c1cccc(=O)[nH]1)N[C@@H](C[C@@H]1CCNC1=O)C(=O)C(=O)N1CCN(CC1)S(=O)(=O)c1ccccc1

$$$$

  CDD

  0  0  0  0  0  0            999 V2000
M  END
> <Molecule Name>
CVD-0001367

> <SMILES>
CC(C)(C)OC(=O)Nc1ccc([nH]c1=O)-c1cccc(CC(=O)N[C@@H](C[C@@H]2CCNC2=O)C(=O)C(=O)N2CCN(CC2)S(=O)(=O)c2ccccc2)c1

$$$$

  CDD

  0  0  0  0  0  0            999 V2000
M  END
> <Molecule Name>
CVD-0001366

> <SMILES>
O=C(CCc1cccc(c1)-c1cccc(=O)[nH]1)N[C@@H](C[C@@H]1CCNC1=O)C(=O)C(=O)N1CCN(CC1)S(=O)(=O)c1ccccc1

$$$$

  CDD

  0  0  0  0  0  0            999 V2000
M  END
> <Molecule Name>
CVD-0001365

> <SMILES>
CC(C)(C)OC(=O)Nc1ccc([nH]c1=O)-c1ccccc1CCNS(=O)(=O)c1ccccc1

$$$$

  CDD

  0  0  0  0  0  0            999 V2000
M  END
> <Molecule Name>
CVD-0001364

> <SMILES>
CC12CC(O)C3C(N)(CCC4=CC(=O)C=CC34C)C1CCC2(O)C(=O)CO

$$$$

  CDD

  0  0  0  0  0  0            999 V2000
M  END
> <Molecule Name>
CVD-0001363

> <SMILES>
CC12CCC3C(N)(CCC4=CC(=O)C=CC34C)C1CCC2(O)C(=O)CO

$$$$

  CDD

  0  0  0  0  0  0            999 V2000
M  END
> <Molecule Name>
CVD-0001362

> <SMILES>
Oc1ccc2nn(nc2c1)-c1cc(C(=O)c2cc(c(C=O)cc2O)-n2nc3ccc(O)cc3n2)c(O)cc1O

$$$$

  CDD

  0  0  0  0  0  0            999 V2000
M  END
> <Molecule Name>
CVD-0001361

> <SMILES>
Oc1ccc2nn(nc2c1)-c1cc(C(=O)c2cc(c(O)cc2O)-n2nc3ccc(O)cc3n2)c(O)c2Oc12

$$$$

  CDD

  0  0  0  0  0  0            999 V2000
M  END
> <Molecule Name>
CVD-0001360

> <SMILES>
Oc1ccc2nn(nc2c1)-c1cc(C(=O)c2cc(c(F)c(F)c2O)-n2nc3ccc(O)cc3n2)c(O)cc1O

$$$$

  CDD

  0  0  0  0  0  0            999 V2000
M  END
> <Molecule Name>
CVD-0001359

> <SMILES>
Oc1ccc2nn(nc2c1)-c1cc(C(=O)c2cc(c(O)cc2O)-n2nc3ccc(O)cc3n2)c(O)cc1O

$$$$

  CDD

  0  0  0  0  0  0            999 V2000
M  END
> <Molecule Name>
CVD-0001358

> <SMILES>
Cc1ccc2nn(nc2c1)-c1cc(C(=O)c2cc(c(O)cc2O)-n2nc3ccc(C)cc3n2)c(O)cc1O

$$$$

  CDD

  0  0  0  0  0  0            999 V2000
M  END
> <Molecule Name>
CVD-0001357

> <SMILES>
COC(=O)C1CCN(CC1)S(=O)(=O)c1ccc(CSc2nnc(o2)C2CCN(CC2)S(=O)(=O)c2ccccc2)cc1

$$$$

  CDD

  0  0  0  0  0  0            999 V2000
M  END
> <Molecule Name>
CVD-0001356

> <SMILES>
NS(=O)(=O)c1cc2NC(CCC(N3CCN(CC3)C(=O)CCl)c3ccc(Br)s3)C(I)Cc2cc1O

$$$$

  CDD

  0  0  0  0  0  0            999 V2000
M  END
> <Molecule Name>
CVD-0001355

> <SMILES>
CN1C(CCc2ccc(cc12)S(N)(=O)=O)C1CN(Cc2ccccc12)C(C)=O

$$$$

  CDD

  0  0  0  0  0  0            999 V2000
M  END
> <Molecule Name>
CVD-0001354

> <SMILES>
CC(=O)N1CCN(Cc2cc(Cl)c3CCC(Cc3c2)S(N)(=O)=O)CC1

$$$$

  CDD

  0  0  0  0  0  0            999 V2000
M  END
> <Molecule Name>
CVD-0001353

> <SMILES>
CC(=O)N1CCN(Cc2cc(Cl)c3ccc(cc3n2)S(N)(=O)=O)CC1

$$$$

  CDD

  0  0  0  0  0  0            999 V2000
M  END
> <Molecule Name>
CVD-0001352

> <SMILES>
CC(=O)N1CCC(CN2CCc3ccc(cc3C2=O)S(N)(=O)=O)CC1

$$$$

  CDD

  0  0  0  0  0  0            999 V2000
M  END
> <Molecule Name>
CVD-0001351

> <SMILES>
CC(=O)N1CCN(CC2CCc3ccc(cc3N2)S(N)(=O)=O)CC1

$$$$

  CDD

  0  0  0  0  0  0            999 V2000
M  END
> <Molecule Name>
CVD-0001350

> <SMILES>
CN1C(CN2CCN(CC2)C(C)=O)CCc2ccc(cc12)S(N)(=O)=O

$$$$

  CDD

  0  0  0  0  0  0            999 V2000
M  END
> <Molecule Name>
CVD-0001349

> <SMILES>
NCc1cc2c(cccc2n1C(=O)N1CCC(O)CC1)S(N)(=O)=O

$$$$

  CDD

  0  0  0  0  0  0            999 V2000
M  END
> <Molecule Name>
CVD-0001348

> <SMILES>
NCc1cc2c(ccc(NCCC(=O)Nc3cccnc3)c2[nH]1)S(N)(=O)=O

$$$$

  CDD

  0  0  0  0  0  0            999 V2000
M  END
> <Molecule Name>
CVD-0001347

> <SMILES>
CN1C(CCc2ccc(cc12)S(N)(=O)=O)C(=O)N1CCC(O)CC1

$$$$

  CDD

  0  0  0  0  0  0            999 V2000
M  END
> <Molecule Name>
CVD-0001346

> <SMILES>
CN1C(CCc2ccc(cc12)S(N)(=O)=O)C(=O)N1CCN(CC1)C(=O)CCl

$$$$

  CDD

  0  0  0  0  0  0            999 V2000
M  END
> <Molecule Name>
CVD-0001345

> <SMILES>
Cc1ccncc1NC(=O)CCN1CC(Cc2ccc(cc12)S(N)(=O)=O)C#N

$$$$

  CDD

  0  0  0  0  0  0            999 V2000
M  END
> <Molecule Name>
CVD-0001344

> <SMILES>
NS(=O)(=O)c1ccc2CC(CN(CCC(=O)Nc3cnccc3C(=O)C=C)c2c1)C#N

$$$$

  CDD

  0  0  0  0  0  0            999 V2000
M  END
> <Molecule Name>
CVD-0001343

> <SMILES>
NCc1cc2c(ccc(C(=O)C#C)c2n1CN1CCC(O)CC1)S(N)(=O)=O

$$$$

  CDD

  0  0  0  0  0  0            999 V2000
M  END
> <Molecule Name>
CVD-0001342

> <SMILES>
NCc1cc2c(NCC(=O)C#C)ccc(NCCC(=O)Nc3cccnc3)c2[nH]1

$$$$

  CDD

  0  0  0  0  0  0            999 V2000
M  END
> <Molecule Name>
CVD-0001341

> <SMILES>
Oc1cccc(NC(=O)Nc2cnccc2CC2CCNC(=O)N2)c1

$$$$

  CDD

  0  0  0  0  0  0            999 V2000
M  END
> <Molecule Name>
CVD-0001340

> <SMILES>
C=CC(=O)COc1cccc(NC(=O)Nc2cnccc2CC2CCNC(=O)N2)c1

$$$$

  CDD

  0  0  0  0  0  0            999 V2000
M  END
> <Molecule Name>
CVD-0001339

> <SMILES>
NCC1CCc2nc(sc2C1)C1CCCN(C1)C(=O)CCl

$$$$

  CDD

  0  0  0  0  0  0            999 V2000
M  END
> <Molecule Name>
CVD-0001338

> <SMILES>
NCC1CCc2[nH]c(cc2C1)C1CCCN(C1)C(=O)CCl

$$$$

  CDD

  0  0  0  0  0  0            999 V2000
M  END
> <Molecule Name>
CVD-0001337

> <SMILES>
CC(=O)N1CCC2CCc3cc([nH]c3N2C1)S(N)(=O)=O

$$$$

  CDD

  0  0  0  0  0  0            999 V2000
M  END
> <Molecule Name>
CVD-0001336

> <SMILES>
CC(=O)N(CCCC(=O)N(C1CS(=O)(=O)C=C1)c1ccc(C)cc1)c1cnccc1C

$$$$

  CDD

  0  0  0  0  0  0            999 V2000
M  END
> <Molecule Name>
CVD-0001335

> <SMILES>
CC(=O)NCCc1c[nH]c2c(CCCC3CN(CCN3C(C)=O)C(=O)CCl)cccc12

$$$$

  CDD

  0  0  0  0  0  0            999 V2000
M  END
> <Molecule Name>
CVD-0001334

> <SMILES>
CC(=O)NCCc1c[nH]c2c(CCNS(C)(=O)=O)cc(C)cc12

$$$$

  CDD

  0  0  0  0  0  0            999 V2000
M  END
> <Molecule Name>
CVD-0001333

> <SMILES>
Cc1ncncc1NC(=O)Nc1ccccc1

$$$$

  CDD

  0  0  0  0  0  0            999 V2000
M  END
> <Molecule Name>
CVD-0001332

> <SMILES>
O=C1\C(CCC\C1=C/C=C/c1ccco1)=C\C=C\c1ccco1

$$$$

  CDD

  0  0  0  0  0  0            999 V2000
M  END
> <Molecule Name>
CVD-0001331

> <SMILES>
O=C1\C(CCC\C1=C/c1ccco1)=C\c1ccco1

$$$$

  CDD

  0  0  0  0  0  0            999 V2000
M  END
> <Molecule Name>
CVD-0001330

> <SMILES>
C=CCn1c(cs\c1=N/N=C/C=C/c1ccco1)C(=O)N1CCN(C\C=C\c2ccccc2)CC1

$$$$

  CDD

  0  0  0  0  0  0            999 V2000
M  END
> <Molecule Name>
CVD-0001329

> <SMILES>
O=C(C1CCN(CC1)S(=O)(=O)c1ccccc1)N1CCOCC1

$$$$

  CDD

  0  0  0  0  0  0            999 V2000
M  END
> <Molecule Name>
CVD-0001328

> <SMILES>
O=S(=O)(N1CCN(CC1)C1CCS(=O)(=O)CC1)c1ccccc1

$$$$

  CDD

  0  0  0  0  0  0            999 V2000
M  END
> <Molecule Name>
CVD-0001327

> <SMILES>
O=C(C1CCOCC1)N1CCN(CC1)C(=O)c1ccccc1

$$$$

  CDD

  0  0  0  0  0  0            999 V2000
M  END
> <Molecule Name>
CVD-0001326

> <SMILES>
CN(CC(=O)C1CCCN1C(=O)c1ccccc1)C(=O)CCl

$$$$

  CDD

  0  0  0  0  0  0            999 V2000
M  END
> <Molecule Name>
CVD-0001325

> <SMILES>
ClCC(=O)NCC(=O)C1CCCN1C(=O)C1CCCCC1

$$$$

  CDD

  0  0  0  0  0  0            999 V2000
M  END
> <Molecule Name>
CVD-0001324

> <SMILES>
ClCC(=O)NCC(=O)C1CCCN1C(=O)c1ccccc1

$$$$

  CDD

  0  0  0  0  0  0            999 V2000
M  END
> <Molecule Name>
CVD-0001323

> <SMILES>
O=C(C1CCCN1C(=O)c1ccccc1)N1CCOCC1

$$$$

  CDD

  0  0  0  0  0  0            999 V2000
M  END
> <Molecule Name>
CVD-0001322

> <SMILES>
O=C(NC1CCCCC1C(=O)N1CCOCC1)c1ccccc1

$$$$

  CDD

  0  0  0  0  0  0            999 V2000
M  END
> <Molecule Name>
CVD-0001321

> <SMILES>
CN1CCC(CC1)C(=O)NC1CCCCC1NC(=O)c1ccccc1

$$$$

  CDD

  0  0  0  0  0  0            999 V2000
M  END
> <Molecule Name>
CVD-0001320

> <SMILES>
CN1CCC(CC1)C(=O)NC1CCCCC1NC(=O)C1CCCCC1

$$$$

  CDD

  0  0  0  0  0  0            999 V2000
M  END
> <Molecule Name>
CVD-0001319

> <SMILES>
O=C(NC1CCCCC1NC(=O)c1ccncc1)c1ccccc1

$$$$

  CDD

  0  0  0  0  0  0            999 V2000
M  END
> <Molecule Name>
CVD-0001318

> <SMILES>
O=C(NC1CCCCC1NC(=O)c1ccncc1)C1CCCCC1

$$$$

  CDD

  0  0  0  0  0  0            999 V2000
M  END
> <Molecule Name>
CVD-0001317

> <SMILES>
Cc1cc(C)nc(NC2CCN(CC2)C(=O)CCl)n1

$$$$

  CDD

  0  0  0  0  0  0            999 V2000
M  END
> <Molecule Name>
CVD-0001316

> <SMILES>
CCC(C)C(=O)N1CCC(CC1)C(=O)SCF

$$$$

  CDD

  0  0  0  0  0  0            999 V2000
M  END
> <Molecule Name>
CVD-0001315

> <SMILES>
CC(C)(C)C(=O)N1CCC(CC1)C(=O)SCF

$$$$

  CDD

  0  0  0  0  0  0            999 V2000
M  END
> <Molecule Name>
CVD-0001314

> <SMILES>
CCC(=O)N1CCC(CC1)C(=O)SCF

$$$$

  CDD

  0  0  0  0  0  0            999 V2000
M  END
> <Molecule Name>
CVD-0001313

> <SMILES>
CC(=O)N1CCC(CC1)C(=O)SCF

$$$$

  CDD

  0  0  0  0  0  0            999 V2000
M  END
> <Molecule Name>
CVD-0001312

> <SMILES>
FCSC(=O)C1CCN(CC1)C(=O)C1CCCCC1

$$$$

  CDD

  0  0  0  0  0  0            999 V2000
M  END
> <Molecule Name>
CVD-0001311

> <SMILES>
FCSC(=O)C1CCN(CC1)C(=O)C1CCC1

$$$$

  CDD

  0  0  0  0  0  0            999 V2000
M  END
> <Molecule Name>
CVD-0001310

> <SMILES>
FCSC(=O)C1CCN(CC1)C(=O)C1CC1

$$$$

  CDD

  0  0  0  0  0  0            999 V2000
M  END
> <Molecule Name>
CVD-0001309

> <SMILES>
CCC(CC)C(=O)N1CCC(CC1)C(=O)SCF

$$$$

  CDD

  0  0  0  0  0  0            999 V2000
M  END
> <Molecule Name>
CVD-0001308

> <SMILES>
FCSC(=O)C1CCN(CC1)C(=O)c1ccc[nH]1

$$$$

  CDD

  0  0  0  0  0  0            999 V2000
M  END
> <Molecule Name>
CVD-0001307

> <SMILES>
FCSC(=O)C1CCN(CC1)C(=O)c1ccc(F)cc1

$$$$

  CDD

  0  0  0  0  0  0            999 V2000
M  END
> <Molecule Name>
CVD-0001306

> <SMILES>
FCSC(=O)C1CCN(CC1)C(=O)c1cccc(F)c1

$$$$

  CDD

  0  0  0  0  0  0            999 V2000
M  END
> <Molecule Name>
CVD-0001305

> <SMILES>
FCSC(=O)C1CCN(CC1)C(=O)c1ccccc1F

$$$$

  CDD

  0  0  0  0  0  0            999 V2000
M  END
> <Molecule Name>
CVD-0001304

> <SMILES>
FCSC(=O)C1CCN(CC1)C(=O)C1CCCC1

$$$$

  CDD

  0  0  0  0  0  0            999 V2000
M  END
> <Molecule Name>
CVD-0001303

> <SMILES>
FCSC(=O)C1CCN(CC1)C(=O)c1cccs1

$$$$

  CDD

  0  0  0  0  0  0            999 V2000
M  END
> <Molecule Name>
CVD-0001302

> <SMILES>
FCSC(=O)C1CCN(CC1)C(=O)c1ccco1

$$$$

  CDD

  0  0  0  0  0  0            999 V2000
M  END
> <Molecule Name>
CVD-0001301

> <SMILES>
FCSC(=O)C1CCN(CC1)C(=O)c1ccccc1

$$$$

  CDD

  0  0  0  0  0  0            999 V2000
M  END
> <Molecule Name>
CVD-0001300

> <SMILES>
CC(C)C(=O)N1CCC(CC1)C(=O)SCF

$$$$

  CDD

  0  0  0  0  0  0            999 V2000
M  END
> <Molecule Name>
CVD-0001299

> <SMILES>
SC(=O)C1CCN(CC1)C(=O)Cc1ccccc1

$$$$

  CDD

  0  0  0  0  0  0            999 V2000
M  END
> <Molecule Name>
CVD-0001298

> <SMILES>
SC(=O)C1CCN(CC1)S(=O)(=O)c1ccccc1

$$$$

  CDD

  0  0  0  0  0  0            999 V2000
M  END
> <Molecule Name>
CVD-0001297

> <SMILES>
SC(=O)C1CCN(Cc2ccccc2)CC1

$$$$

  CDD

  0  0  0  0  0  0            999 V2000
M  END
> <Molecule Name>
CVD-0001296

> <SMILES>
SC(=O)C1CCN(CC1)C(=O)C1CCCCC1

$$$$

  CDD

  0  0  0  0  0  0            999 V2000
M  END
> <Molecule Name>
CVD-0001295

> <SMILES>
SC(=O)C1CCN(CC1)C(=O)c1ccccc1

$$$$

  CDD

  0  0  0  0  0  0            999 V2000
M  END
> <Molecule Name>
CVD-0001294

> <SMILES>
CNC(=O)OC1CCN(Cc2ccccc2)CC1

$$$$

  CDD

  0  0  0  0  0  0            999 V2000
M  END
> <Molecule Name>
CVD-0001293

> <SMILES>
CNC(=O)OC1CCN(CC1)S(=O)(=O)c1ccccc1

$$$$

  CDD

  0  0  0  0  0  0            999 V2000
M  END
> <Molecule Name>
CVD-0001292

> <SMILES>
CNC(=O)OC1CCN(CC1)C(=O)c1ccncc1

$$$$

  CDD

  0  0  0  0  0  0            999 V2000
M  END
> <Molecule Name>
CVD-0001291

> <SMILES>
CNC(=O)OC1CCN(CC1)C(=O)c1ccccc1

$$$$

  CDD

  0  0  0  0  0  0            999 V2000
M  END
> <Molecule Name>
CVD-0001290

> <SMILES>
CNC(=O)OC1CCN(CC1)C(=O)N1CCCCC1

$$$$

  CDD

  0  0  0  0  0  0            999 V2000
M  END
> <Molecule Name>
CVD-0001289

> <SMILES>
O=C(CC(=O)Nc1ccncc1)Nc1ccccc1

$$$$

  CDD

  0  0  0  0  0  0            999 V2000
M  END
> <Molecule Name>
CVD-0001288

> <SMILES>
O=C(CC(=O)N1CCOCC1)NCc1ccccc1

$$$$

  CDD

  0  0  0  0  0  0            999 V2000
M  END
> <Molecule Name>
CVD-0001287

> <SMILES>
ClCC(=O)CNC(=O)CC(=O)NCc1ccccc1

$$$$

  CDD

  0  0  0  0  0  0            999 V2000
M  END
> <Molecule Name>
CVD-0001286

> <SMILES>
ClCC(=O)CNC(=O)CC(=O)Nc1ccccc1

$$$$

  CDD

  0  0  0  0  0  0            999 V2000
M  END
> <Molecule Name>
CVD-0001285

> <SMILES>
ClCC(=O)CNC(=O)CC(=O)NC1CCCCC1

$$$$

  CDD

  0  0  0  0  0  0            999 V2000
M  END
> <Molecule Name>
CVD-0001284

> <SMILES>
O=C(CC(=O)N1CCOCC1)Nc1ccccc1

$$$$

  CDD

  0  0  0  0  0  0            999 V2000
M  END
> <Molecule Name>
CVD-0001283

> <SMILES>
O=C(CC(=O)N1CCOCC1)NC1CCCCC1

$$$$

  CDD

  0  0  0  0  0  0            999 V2000
M  END
> <Molecule Name>
CVD-0001282

> <SMILES>
O=C(C1CCCN(C1)c1ccncc1)N1CCS(=O)(=O)CC1

$$$$

  CDD

  0  0  0  0  0  0            999 V2000
M  END
> <Molecule Name>
CVD-0001281

> <SMILES>
O=C(C1CCCN(C1)c1ccncc1)N1CCOCC1

$$$$

  CDD

  0  0  0  0  0  0            999 V2000
M  END
> <Molecule Name>
CVD-0001280

> <SMILES>
O=C(C1CCCN(C1)c1ccncc1)N1CCCCC1

$$$$

  CDD

  0  0  0  0  0  0            999 V2000
M  END
> <Molecule Name>
CVD-0001279

> <SMILES>
O=C(C1CCN(CC1)c1ccncc1)N1CCS(=O)(=O)CC1

$$$$

  CDD

  0  0  0  0  0  0            999 V2000
M  END
> <Molecule Name>
CVD-0001278

> <SMILES>
O=C(C1CCN(CC1)c1ccncc1)N1CCOCC1

$$$$

  CDD

  0  0  0  0  0  0            999 V2000
M  END
> <Molecule Name>
CVD-0001277

> <SMILES>
O=C(C1CCN(CC1)c1ccncc1)N1CCCCC1

$$$$

  CDD

  0  0  0  0  0  0            999 V2000
M  END
> <Molecule Name>
CVD-0001276

> <SMILES>
ClCC(=O)N1CCN(CC1)C(C1CCNC(=O)C1)c1ccccc1

$$$$

  CDD

  0  0  0  0  0  0            999 V2000
M  END
> <Molecule Name>
CVD-0001275

> <SMILES>
OCC(=O)N1CCC(CC1)C(N1CCN(CC1)C(=O)CCl)c1ccccc1

$$$$

  CDD

  0  0  0  0  0  0            999 V2000
M  END
> <Molecule Name>
CVD-0001274

> <SMILES>
OCC(CO)C(N1CCN(CC1)C(=O)CCl)c1ccccc1

$$$$

  CDD

  0  0  0  0  0  0            999 V2000
M  END
> <Molecule Name>
CVD-0001273

> <SMILES>
ClCC(=O)N1CCN(CC1)C(C1CCCCC1)c1ccccc1

$$$$

  CDD

  0  0  0  0  0  0            999 V2000
M  END
> <Molecule Name>
CVD-0001272

> <SMILES>
CN1CCC(CC1)C(N1CCN(CC1)C(=O)CCl)c1ccccc1

$$$$

  CDD

  0  0  0  0  0  0            999 V2000
M  END
> <Molecule Name>
CVD-0001271

> <SMILES>
ClCC(=O)N1CCN(CC1)C(C1CCNCC1)c1ccccc1

$$$$

  CDD

  0  0  0  0  0  0            999 V2000
M  END
> <Molecule Name>
CVD-0001270

> <SMILES>
ClCC(=O)N1CCN(CC1)C(C1CCS(=O)(=O)CC1)c1ccccc1

$$$$

  CDD

  0  0  0  0  0  0            999 V2000
M  END
> <Molecule Name>
CVD-0001269

> <SMILES>
ClCC(=O)N1CCN(CC1)C(C1CCOCC1)c1ccccc1

$$$$

  CDD

  0  0  0  0  0  0            999 V2000
M  END
> <Molecule Name>
CVD-0001268

> <SMILES>
OCCC(CCO)C(N1CCN(CC1)C(=O)CCl)c1ccccc1

$$$$

  CDD

  0  0  0  0  0  0            999 V2000
M  END
> <Molecule Name>
CVD-0001267

> <SMILES>
CC(C(O)=O)c1ccc2c(c1)[nH]c1ccc(Cl)cc21

$$$$

  CDD

  0  0  0  0  0  0            999 V2000
M  END
> <Molecule Name>
CVD-0001266

> <SMILES>
O=c1c(cc(cn1-c1ccccc1)-c1ccccn1)-c1ccccc1C#N

$$$$

  CDD

  0  0  0  0  0  0            999 V2000
M  END
> <Molecule Name>
CVD-0001265

> <SMILES>
OC(=O)c1cn(-c2ccc(F)cc2)c2cc(N3CCNCC3)c(F)cc2c1=O

$$$$

  CDD

  0  0  0  0  0  0            999 V2000
M  END
> <Molecule Name>
CVD-0001264

> <SMILES>
Cc1nnc2CN=C(c3ccccc3)c3cc(Cl)ccc3-n12

$$$$

  CDD

  0  0  0  0  0  0            999 V2000
M  END
> <Molecule Name>
CVD-0001263

> <SMILES>
N[C@H]1[C@@H]2CN(C[C@H]12)c1nc2n(cc(C(O)=O)c(=O)c2cc1F)-c1ccc(F)cc1F

$$$$

  CDD

  0  0  0  0  0  0            999 V2000
M  END
> <Molecule Name>
CVD-0001262

> <SMILES>
CCOC(=O)C(c1c(O)c2ccccc2oc1=O)c1c(O)c2ccccc2oc1=O

$$$$

  CDD

  0  0  0  0  0  0            999 V2000
M  END
> <Molecule Name>
CVD-0001261

> <SMILES>
Cc1ccc(cc1)-c1cc(nn1-c1ccc(cc1)S(N)(=O)=O)C(F)(F)F

$$$$

  CDD

  0  0  0  0  0  0            999 V2000
M  END
> <Molecule Name>
CVD-0001260

> <SMILES>
NS(=O)(=O)c1ccc2sc(CC3=C(N(Cc4ccccc34)C(=O)CCl)C(=O)Nc3cccnc3)cc2c1

$$$$

  CDD

  0  0  0  0  0  0            999 V2000
M  END
> <Molecule Name>
CVD-0001259

> <SMILES>
CS(=O)(=O)NCc1cccc(c1)C1=C(N(Cc2ccccc12)C(=O)CCl)C(=O)Nc1cccnc1

$$$$

  CDD

  0  0  0  0  0  0            999 V2000
M  END
> <Molecule Name>
CVD-0001258

> <SMILES>
CCNc1ncc(cc1CNS(=O)(=O)c1ccc(F)cc1)C#N

$$$$

  CDD

  0  0  0  0  0  0            999 V2000
M  END
> <Molecule Name>
CVD-0001257

> <SMILES>
CCNc1ncc(cc1Oc1nc(cs1)-c1ccc(F)cc1)C#N

$$$$

  CDD

  0  0  0  0  0  0            999 V2000
M  END
> <Molecule Name>
CVD-0001256

> <SMILES>
CCNc1ncc(cc1C(=O)NCc1ccc2cn[nH]c2c1)C#N

$$$$

  CDD

  0  0  0  0  0  0            999 V2000
M  END
> <Molecule Name>
CVD-0001255

> <SMILES>
CCNc1ncc(cc1NCCc1ccc2cn[nH]c2c1)C#N

$$$$

  CDD

  0  0  0  0  0  0            999 V2000
M  END
> <Molecule Name>
CVD-0001254

> <SMILES>
CCNc1cc(NCc2ccc3[nH]ncc3c2)c(cn1)C#N

$$$$

  CDD

  0  0  0  0  0  0            999 V2000
M  END
> <Molecule Name>
CVD-0001253

> <SMILES>
CCNc1ncc(cc1N(C)Cc1ccc2[nH]ncc2c1)C#N

$$$$

  CDD

  0  0  0  0  0  0            999 V2000
M  END
> <Molecule Name>
CVD-0001252

> <SMILES>
CCNc1ncc(cc1OCc1ccc2[nH]ncc2c1)C#N

$$$$

  CDD

  0  0  0  0  0  0            999 V2000
M  END
> <Molecule Name>
CVD-0001251

> <SMILES>
CCNc1ncc(cc1NCCc1ccc2ncoc2c1)C#N

$$$$

  CDD

  0  0  0  0  0  0            999 V2000
M  END
> <Molecule Name>
CVD-0001250

> <SMILES>
CCNc1ncc(cc1CCc1cnc2ccccc2n1)C#N

$$$$

  CDD

  0  0  0  0  0  0            999 V2000
M  END
> <Molecule Name>
CVD-0001249

> <SMILES>
CCNc1ncc(cc1NCc1ccc2CNC(=O)c2c1)C#N

$$$$

  CDD

  0  0  0  0  0  0            999 V2000
M  END
> <Molecule Name>
CVD-0001248

> <SMILES>
CCNc1ncc(cc1NCc1ccc2[nH]ncc2c1)C#N

$$$$

  CDD

  0  0  0  0  0  0            999 V2000
M  END
> <Molecule Name>
CVD-0001247

> <SMILES>
CCNc1ncc(cc1Cc1ccc2CNC(=O)c2c1)C#N

$$$$

  CDD

  0  0  0  0  0  0            999 V2000
M  END
> <Molecule Name>
CVD-0001246

> <SMILES>
CCNc1ncc(cc1NCc1c[nH]c2ccccc12)C#N

$$$$

  CDD

  0  0  0  0  0  0            999 V2000
M  END
> <Molecule Name>
CVD-0001245

> <SMILES>
CCNc1ncc(cc1N(C)c1ccc(cc1)S(N)(=O)=O)C#N

$$$$

  CDD

  0  0  0  0  0  0            999 V2000
M  END
> <Molecule Name>
CVD-0001244

> <SMILES>
CCNc1ncc(cc1N(C)c1nc(cs1)-c1ccccc1)C#N

$$$$

  CDD

  0  0  0  0  0  0            999 V2000
M  END
> <Molecule Name>
CVD-0001243

> <SMILES>
CCNc1ncc(cc1CNc1nc2ccccc2o1)C#N

$$$$

  CDD

  0  0  0  0  0  0            999 V2000
M  END
> <Molecule Name>
CVD-0001242

> <SMILES>
CCNc1ncc(cc1Oc1c(C)n(C)n(-c2ccccc2)c1=O)C#N

$$$$

  CDD

  0  0  0  0  0  0            999 V2000
M  END
> <Molecule Name>
CVD-0001241

> <SMILES>
CCNc1ncc(cc1Nc1ccc2[nH]ccc2c1)C#N

$$$$

  CDD

  0  0  0  0  0  0            999 V2000
M  END
> <Molecule Name>
CVD-0001240

> <SMILES>
CCNc1ncc(cc1OCc1ccc2[nH]ccc2c1)C#N

$$$$

  CDD

  0  0  0  0  0  0            999 V2000
M  END
> <Molecule Name>
CVD-0001239

> <SMILES>
CCNc1ncc(cc1N(C)c1ccc2nc(C)sc2c1)C#N

$$$$

  CDD

  0  0  0  0  0  0            999 V2000
M  END
> <Molecule Name>
CVD-0001238

> <SMILES>
CCNc1ncc(cc1N(C)c1cn(C(C)=O)c2ccccc12)C#N

$$$$

  CDD

  0  0  0  0  0  0            999 V2000
M  END
> <Molecule Name>
CVD-0001237

> <SMILES>
CCNc1ncc(cc1CCc1cccc(c1)C(N)=O)C#N

$$$$

  CDD

  0  0  0  0  0  0            999 V2000
M  END
> <Molecule Name>
CVD-0001236

> <SMILES>
Cc1ccncc1NC(=O)Cc1nc2ccccc2[nH]1

$$$$

  CDD

  0  0  0  0  0  0            999 V2000
M  END
> <Molecule Name>
CVD-0001235

> <SMILES>
CN(CC(=O)Nc1cnccc1C)S(=O)(=O)c1cccc2cccnc12

$$$$

  CDD

  0  0  0  0  0  0            999 V2000
M  END
> <Molecule Name>
CVD-0001234

> <SMILES>
CN(CC(=O)Nc1cnccc1C)c1cc2ccccc2[nH]1

$$$$

  CDD

  0  0  0  0  0  0            999 V2000
M  END
> <Molecule Name>
CVD-0001233

> <SMILES>
Cc1ccncc1NC(=O)CC(C)(C)NC(=O)c1cccc2[nH]ccc12

$$$$

  CDD

  0  0  0  0  0  0            999 V2000
M  END
> <Molecule Name>
CVD-0001232

> <SMILES>
Cc1ccncc1NC(=O)CNC(=O)c1ccc2nc[nH]c2c1

$$$$

  CDD

  0  0  0  0  0  0            999 V2000
M  END
> <Molecule Name>
CVD-0001231

> <SMILES>
Cc1ccncc1NC(=O)CNc1ccnc2ccccc12

$$$$

  CDD

  0  0  0  0  0  0            999 V2000
M  END
> <Molecule Name>
CVD-0001230

> <SMILES>
Cc1ccncc1NC(=O)CCNc1ccc(cc1)S(N)(=O)=O

$$$$

  CDD

  0  0  0  0  0  0            999 V2000
M  END
> <Molecule Name>
CVD-0001229

> <SMILES>
Cc1ccncc1NC(=O)Cc1nc2cccc(C)c2o1

$$$$

  CDD

  0  0  0  0  0  0            999 V2000
M  END
> <Molecule Name>
CVD-0001228

> <SMILES>
Cc1ccncc1NC(=O)CCc1nc2cc(Cl)ccc2o1

$$$$

  CDD

  0  0  0  0  0  0            999 V2000
M  END
> <Molecule Name>
CVD-0001227

> <SMILES>
CC(=O)Nc1ccc(NCC(=O)Nc2cnccc2C)cc1

$$$$

  CDD

  0  0  0  0  0  0            999 V2000
M  END
> <Molecule Name>
CVD-0001226

> <SMILES>
Cc1ccncc1NC(=O)Cc1ccc(cc1)S(N)(=O)=O

$$$$

  CDD

  0  0  0  0  0  0            999 V2000
M  END
> <Molecule Name>
CVD-0001225

> <SMILES>
Cc1ccncc1NC(=O)CNC(=O)c1nnc2ccccn12

$$$$

  CDD

  0  0  0  0  0  0            999 V2000
M  END
> <Molecule Name>
CVD-0001224

> <SMILES>
CN(CC(=O)Nc1cnccc1C)c1cccc(c1)C#N

$$$$

  CDD

  0  0  0  0  0  0            999 V2000
M  END
> <Molecule Name>
CVD-0001223

> <SMILES>
Cc1ccncc1NC(=O)Cc1ccc2nc[nH]c2c1

$$$$

  CDD

  0  0  0  0  0  0            999 V2000
M  END
> <Molecule Name>
CVD-0001222

> <SMILES>
Cc1ccncc1NC(=O)CNc1c[nH]c2ccccc12

$$$$

  CDD

  0  0  0  0  0  0            999 V2000
M  END
> <Molecule Name>
CVD-0001221

> <SMILES>
CN(CC(=O)Nc1cnccc1C)c1c([nH]c2ccc(Cl)cc12)C(N)=O

$$$$

  CDD

  0  0  0  0  0  0            999 V2000
M  END
> <Molecule Name>
CVD-0001220

> <SMILES>
COc1ccc(cc1)-c1csc(CC(=O)Nc2cnccc2C)n1

$$$$

  CDD

  0  0  0  0  0  0            999 V2000
M  END
> <Molecule Name>
CVD-0001219

> <SMILES>
Cc1cc(C)c2nc(sc2c1)C(=O)NCC(=O)Nc1cnccc1C

$$$$

  CDD

  0  0  0  0  0  0            999 V2000
M  END
> <Molecule Name>
CVD-0001218

> <SMILES>
Cc1ccncc1NC(=O)CNC(=O)Cc1cccnc1

$$$$

  CDD

  0  0  0  0  0  0            999 V2000
M  END
> <Molecule Name>
CVD-0001217

> <SMILES>
Cc1ccncc1NC(=O)CCNc1ccc2[nH]ncc2c1

$$$$

  CDD

  0  0  0  0  0  0            999 V2000
M  END
> <Molecule Name>
CVD-0001216

> <SMILES>
Cc1ccncc1NC(=O)Cc1nc2ncccc2o1

$$$$

  CDD

  0  0  0  0  0  0            999 V2000
M  END
> <Molecule Name>
CVD-0001215

> <SMILES>
CN(CC(=O)Nc1cnccc1C)c1cn(C(C)=O)c2ccccc12

$$$$

  CDD

  0  0  0  0  0  0            999 V2000
M  END
> <Molecule Name>
CVD-0001214

> <SMILES>
CN(CC(=O)Nc1cnccc1C)c1cccc(c1)-c1ccn[nH]1

$$$$

  CDD

  0  0  0  0  0  0            999 V2000
M  END
> <Molecule Name>
CVD-0001213

> <SMILES>
CC(=O)NCCc1c[nH]c2c(Oc3ccc4cn[nH]c4c3)cc(F)cc12

$$$$

  CDD

  0  0  0  0  0  0            999 V2000
M  END
> <Molecule Name>
CVD-0001212

> <SMILES>
COc1ccc(Cc2cc(F)cc3c(CCNC(C)=O)c[nH]c23)cc1OC

$$$$

  CDD

  0  0  0  0  0  0            999 V2000
M  END
> <Molecule Name>
CVD-0001211

> <SMILES>
CC(=O)NCCc1c[nH]c2c(Oc3ccc4ncccc4c3)cc(F)cc12

$$$$

  CDD

  0  0  0  0  0  0            999 V2000
M  END
> <Molecule Name>
CVD-0001210

> <SMILES>
COc1cc(Nc2cc(F)cc3c(CCNC(C)=O)c[nH]c23)cc(OC)c1

$$$$

  CDD

  0  0  0  0  0  0            999 V2000
M  END
> <Molecule Name>
CVD-0001209

> <SMILES>
CC(=O)NCCc1c[nH]c2c(cc(F)cc12)-c1cccc(c1)-c1ccn[nH]1

$$$$

  CDD

  0  0  0  0  0  0            999 V2000
M  END
> <Molecule Name>
CVD-0001208

> <SMILES>
CC(=O)NCCc1c[nH]c2c(CNc3ccc4CNC(=O)c4c3)cc(F)cc12

$$$$

  CDD

  0  0  0  0  0  0            999 V2000
M  END
> <Molecule Name>
CVD-0001207

> <SMILES>
CC(=O)NCCc1c[nH]c2c(Cc3nc4ccccc4[nH]3)cc(F)cc12

$$$$

  CDD

  0  0  0  0  0  0            999 V2000
M  END
> <Molecule Name>
CVD-0001206

> <SMILES>
CC(=O)NCCc1c[nH]c2c(NCc3ncccn3)cc(F)cc12

$$$$

  CDD

  0  0  0  0  0  0            999 V2000
M  END
> <Molecule Name>
CVD-0001205

> <SMILES>
CC(=O)NCCc1c[nH]c2c(NCc3ccc4nc[nH]c4c3)cc(F)cc12

$$$$

  CDD

  0  0  0  0  0  0            999 V2000
M  END
> <Molecule Name>
CVD-0001204

> <SMILES>
CC(=O)NCCc1c[nH]c2c(OCc3ccc4nc[nH]c4c3)cc(F)cc12

$$$$

  CDD

  0  0  0  0  0  0            999 V2000
M  END
> <Molecule Name>
CVD-0001203

> <SMILES>
CN(c1cc2OCOc2cc1Cl)c1cc(F)cc2c(CCNC(C)=O)c[nH]c12

$$$$

  CDD

  0  0  0  0  0  0            999 V2000
M  END
> <Molecule Name>
CVD-0001202

> <SMILES>
CC(=O)NCCc1c[nH]c2c(Nc3nc4ccccc4o3)cc(F)cc12

$$$$

  CDD

  0  0  0  0  0  0            999 V2000
M  END
> <Molecule Name>
CVD-0001201

> <SMILES>
CN(Cc1ccc2[nH]ncc2c1)c1cc(F)cc2c(CCNC(C)=O)c[nH]c12

$$$$

  CDD

  0  0  0  0  0  0            999 V2000
M  END
> <Molecule Name>
CVD-0001200

> <SMILES>
CC(=O)NCCc1c[nH]c2c(NCc3nc4ccccc4o3)cc(F)cc12

$$$$

  CDD

  0  0  0  0  0  0            999 V2000
M  END
> <Molecule Name>
CVD-0001199

> <SMILES>
CC(=O)NCCc1c[nH]c2c(CNc3cc4ccccc4[nH]3)cc(F)cc12

$$$$

  CDD

  0  0  0  0  0  0            999 V2000
M  END
> <Molecule Name>
CVD-0001198

> <SMILES>
CC(=O)NCCc1c[nH]c2c(Nc3ccc(NC(C)=O)cc3)cc(F)cc12

$$$$

  CDD

  0  0  0  0  0  0            999 V2000
M  END
> <Molecule Name>
CVD-0001197

> <SMILES>
CC(=O)NCCc1c[nH]c2c(NCc3ccccc3C#N)cc(F)cc12

$$$$

  CDD

  0  0  0  0  0  0            999 V2000
M  END
> <Molecule Name>
CVD-0001196

> <SMILES>
CC(=O)NCCc1c[nH]c2c(NS(=O)(=O)Cc3ccc4[nH]ncc4c3)cc(F)cc12

$$$$

  CDD

  0  0  0  0  0  0            999 V2000
M  END
> <Molecule Name>
CVD-0001195

> <SMILES>
CC(=O)NCCc1c[nH]c2c(Nc3ccc4ncccc4c3)cc(F)cc12

$$$$

  CDD

  0  0  0  0  0  0            999 V2000
M  END
> <Molecule Name>
CVD-0001194

> <SMILES>
CC(=O)NCCc1c[nH]c2c(cc(F)cc12)S(=O)(=O)Nc1ccc2CNC(=O)c2c1

$$$$

  CDD

  0  0  0  0  0  0            999 V2000
M  END
> <Molecule Name>
CVD-0001193

> <SMILES>
CC(=O)NCCc1c[nH]c2c(Cc3cccc(c3)-c3ccn[nH]3)cc(F)cc12

$$$$

  CDD

  0  0  0  0  0  0            999 V2000
M  END
> <Molecule Name>
CVD-0001192

> <SMILES>
CCCCOc1ccc(NC(=O)Nc2ncc(s2)[N+]([O-])=O)cc1

$$$$

  CDD

  0  0  0  0  0  0            999 V2000
M  END
> <Molecule Name>
CVD-0001191

> <SMILES>
Fc1ccc(NC(=O)NCCNc2ccnc3cc(Cl)ccc23)cc1

$$$$

  CDD

  0  0  0  0  0  0            999 V2000
M  END
> <Molecule Name>
CVD-0001190

> <SMILES>
[O-][N+](=O)c1cnc(NC(=O)c2cccc(c2)C#N)s1

$$$$

  CDD

  0  0  0  0  0  0            999 V2000
M  END
> <Molecule Name>
CVD-0001189

> <SMILES>
Fc1ccc2[nH]cc(CCNC(=O)NCC3CCCCC3)c2c1

$$$$

  CDD

  0  0  0  0  0  0            999 V2000
M  END
> <Molecule Name>
CVD-0001188

> <SMILES>
[N+]Cc1cncc(CC(=O)N[C@@H]2CC[C@H]3O[C@@H]3C2)c1

$$$$

  CDD

  0  0  0  0  0  0            999 V2000
M  END
> <Molecule Name>
CVD-0001187

> <SMILES>
OCc1cncc(NC(=O)N[C@@H]2CC[C@H]3O[C@@H]3C2)c1

$$$$

  CDD

  0  0  0  0  0  0            999 V2000
M  END
> <Molecule Name>
CVD-0001186

> <SMILES>
Nc1cncc(NC(=O)N[C@@H]2CC[C@H]3O[C@@H]3C2)c1

$$$$

  CDD

  0  0  0  0  0  0            999 V2000
M  END
> <Molecule Name>
CVD-0001185

> <SMILES>
O=C(N[C@@H]1CC[C@H]2O[C@@H]2C1)Nc1cccnc1

$$$$

  CDD

  0  0  0  0  0  0            999 V2000
M  END
> <Molecule Name>
CVD-0001184

> <SMILES>
FC1CCC(CC1)NC(=O)Nc1cccnc1

$$$$

  CDD

  0  0  0  0  0  0            999 V2000
M  END
> <Molecule Name>
CVD-0001183

> <SMILES>
FC1CCC(CC(=O)Nc2cccnc2)CC1

$$$$

  CDD

  0  0  0  0  0  0            999 V2000
M  END
> <Molecule Name>
CVD-0001182

> <SMILES>
OC(=O)[C@@H](Cc1nc(=O)cc[nH]1)NC[C@@H]1C[C@H]2C[C@@H]1C=C2

$$$$

  CDD

  0  0  0  0  0  0            999 V2000
M  END
> <Molecule Name>
CVD-0001181

> <SMILES>
C[C@H]1CN(Cc2ccccc2)CC[C@@H]1NC(=O)C(=O)NCc1ccccc1CN1CCCC[C@@H]1C

$$$$

  CDD

  0  0  0  0  0  0            999 V2000
M  END
> <Molecule Name>
CVD-0001180

> <SMILES>
Cc1cc(ccc1OC[C@H](O)Cn1cnccc1=O)C(C)(C)C

$$$$

  CDD

  0  0  0  0  0  0            999 V2000
M  END
> <Molecule Name>
CVD-0001179

> <SMILES>
Cc1ccc(NCc2cc(NC(=O)OC(C)(C)C)ccc2Br)cn1

$$$$

  CDD

  0  0  0  0  0  0            999 V2000
M  END
> <Molecule Name>
CVD-0001178

> <SMILES>
OC(=O)[C@@H](Cc1nc(=O)cc[nH]1)NCc1ccc(Cl)s1

$$$$

  CDD

  0  0  0  0  0  0            999 V2000
M  END
> <Molecule Name>
CVD-0001177

> <SMILES>
CCOC(=O)[C@@H](CCc1ccccc1)N[C@H](C)C(=O)Nc1cccc(CN2CCCC2)c1

$$$$

  CDD

  0  0  0  0  0  0            999 V2000
M  END
> <Molecule Name>
CVD-0001176

> <SMILES>
CCN1CCN(Cc2ccccc2CNC(=O)[C@@]2(C)CCN2C(=O)OC(C)(C)C)CC1

$$$$

  CDD

  0  0  0  0  0  0            999 V2000
M  END
> <Molecule Name>
CVD-0001175

> <SMILES>
CCN1CCN(Cc2ccccc2CNC2=NC[C@H](N2)C2CCCC2)CC1

$$$$

  CDD

  0  0  0  0  0  0            999 V2000
M  END
> <Molecule Name>
CVD-0001174

> <SMILES>
O=C(N1C[C@@H](CNCc2c[nH]cn2)N2CC[C@H]1C2)c1ccccc1

$$$$

  CDD

  0  0  0  0  0  0            999 V2000
M  END
> <Molecule Name>
CVD-0001173

> <SMILES>
O=S(=O)(Cc1nc(no1)-c1ccncc1)Nc1ccc(cc1)N1CCCCC1

$$$$

  CDD

  0  0  0  0  0  0            999 V2000
M  END
> <Molecule Name>
CVD-0001172

> <SMILES>
CC[C@@H]1CN=C(NCc2ccccc2CN2CCN(CC)CC2)N1

$$$$

  CDD

  0  0  0  0  0  0            999 V2000
M  END
> <Molecule Name>
CVD-0001171

> <SMILES>
OCCOc1ccccc1CNC(=O)C(=O)N[C@H]1C[C@H]1C1CCOCC1

$$$$

  CDD

  0  0  0  0  0  0            999 V2000
M  END
> <Molecule Name>
CVD-0001170

> <SMILES>
Cc1ccc(c(C)c1)S(=O)(=O)Nc1c(nc2ccccn12)-c1cccnc1

$$$$

  CDD

  0  0  0  0  0  0            999 V2000
M  END
> <Molecule Name>
CVD-0001169

> <SMILES>
Fc1ccc(cc1)[C@H]1OCCN([C@H]1Nc1cnccn1)C(=O)CCl

$$$$

  CDD

  0  0  0  0  0  0            999 V2000
M  END
> <Molecule Name>
CVD-0001168

> <SMILES>
Fc1ccc(cc1)[C@H]1OCCN([C@H]1Nc1cccnc1)C(=O)CCl

$$$$

  CDD

  0  0  0  0  0  0            999 V2000
M  END
> <Molecule Name>
CVD-0001167

> <SMILES>
COC(=O)[C@H](CO)NC(=O)[C@H](Cc1ccccc1)NC(=O)OCc1ccccc1

$$$$

  CDD

  0  0  0  0  0  0            999 V2000
M  END
> <Molecule Name>
CVD-0001166

> <SMILES>
NC(=O)CC[C@@H]1N[C@]2([C@H]3[C@@H]1C(=O)N(Cc1ccc4OCOc4c1)C3=O)C(=O)Nc1c2cccc1Cl

$$$$

  CDD

  0  0  0  0  0  0            999 V2000
M  END
> <Molecule Name>
CVD-0001165

> <SMILES>
NC(=N)NCCC[C@H](NC(=O)[C@H](Cc1ccccc1)NC(=O)OCc1ccccc1)C(O)=O

$$$$

  CDD

  0  0  0  0  0  0            999 V2000
M  END
> <Molecule Name>
CVD-0001164

> <SMILES>
Cc1ccc(cc1)N([C@@H](C(=O)NC1CCCCC1)c1ccc(O)cc1)C(=O)[C@H]1N2[C@H](CC2=O)S(=O)(=O)C1(C)C

$$$$

  CDD

  0  0  0  0  0  0            999 V2000
M  END
> <Molecule Name>
CVD-0001163

> <SMILES>
O[C@@H]1C[C@@H]([C@@H](NC(=O)c2cccc(c2)C#N)[C@@H]1O)c1ccc(cc1)C(F)(F)F

$$$$

  CDD

  0  0  0  0  0  0            999 V2000
M  END
> <Molecule Name>
CVD-0001162

> <SMILES>
COCCN1C(=O)[C@@H]2[C@H](Cc3c[nH]c4ccccc34)N[C@@]3([C@@H]2C1=O)C(=O)Nc1ccc(Cl)cc31

$$$$

  CDD

  0  0  0  0  0  0            999 V2000
M  END
> <Molecule Name>
CVD-0001161

> <SMILES>
Clc1cccc(NC(=O)[C@@H]2CCC(=O)N2[C@@H]2OC(=O)c3ccccc23)c1

$$$$

  CDD

  0  0  0  0  0  0            999 V2000
M  END
> <Molecule Name>
CVD-0001160

> <SMILES>
O[C@H]1C[C@](CNC(=O)Nc2cccnc2)(COc2ccc(cn2)C(F)(F)F)C[C@H]1O

$$$$

  CDD

  0  0  0  0  0  0            999 V2000
M  END
> <Molecule Name>
CVD-0001159

> <SMILES>
Clc1ccc(cc1)[C@@H]1N2[C@H](Cc3c1[nH]c1ccccc31)C(=O)N(CCCn1ccnc1)CC2=O

$$$$

  CDD

  0  0  0  0  0  0            999 V2000
M  END
> <Molecule Name>
CVD-0001158

> <SMILES>
OC(=O)[C@@H]1CCCN1C(=O)C[C@@H](CNC(=O)[C@@H]1CSCN1)c1ccc(Cl)cc1

$$$$

  CDD

  0  0  0  0  0  0            999 V2000
M  END
> <Molecule Name>
CVD-0001157

> <SMILES>
CC(C)OC(=O)NC[C@H](C)OC(=O)Nc1ccc(Cl)cc1

$$$$

  CDD

  0  0  0  0  0  0            999 V2000
M  END
> <Molecule Name>
CVD-0001156

> <SMILES>
NC(=O)c1cccc(c1)S(=O)(=O)N1CC[C@@H](CC(O)=O)[C@H](C1)\C=C1/NCCc2cc(F)ccc12

$$$$

  CDD

  0  0  0  0  0  0            999 V2000
M  END
> <Molecule Name>
CVD-0001155

> <SMILES>
CSCC(=O)N1CC[C@H](NC(=O)Nc2ccc(F)cc2F)[C@H]1C(=O)N(C)CC(N)=O

$$$$

  CDD

  0  0  0  0  0  0            999 V2000
M  END
> <Molecule Name>
CVD-0001154

> <SMILES>
COC(=O)[C@H]1Cc2c([nH]c3ccccc23)[C@@H](N1)c1ccccc1Cl

$$$$

  CDD

  0  0  0  0  0  0            999 V2000
M  END
> <Molecule Name>
CVD-0001153

> <SMILES>
O[C@H]1[C@@H](O)[C@H](CC(=O)NCc2ccc(F)cc2)O[C@@H]1CNCc1cccc(Cl)c1

$$$$

  CDD

  0  0  0  0  0  0            999 V2000
M  END
> <Molecule Name>
CVD-0001152

> <SMILES>
CC(C)C[C@@H](NC(=O)[C@@H](Cc1ccccc1)NC(=O)OCc1ccccc1)C(=O)NCC(N)=O

$$$$

  CDD

  0  0  0  0  0  0            999 V2000
M  END
> <Molecule Name>
CVD-0001151

> <SMILES>
ClCC(=O)N1CCN(CC1)C(=C\c1ccc(cc1)C#N)\N1C=CC(=O)CC1=O

$$$$

  CDD

  0  0  0  0  0  0            999 V2000
M  END
> <Molecule Name>
CVD-0001150

> <SMILES>
ClCC(=O)N1CCN(Cc2cc(-c3ccc(cc3)C#N)c3ccncc3c2)CC1

$$$$

  CDD

  0  0  0  0  0  0            999 V2000
M  END
> <Molecule Name>
CVD-0001149

> <SMILES>
ClCC(=O)N1CCN(CC1)C1CC(=NCc2[nH]cnc12)c1ccc(cc1)C#N

$$$$

  CDD

  0  0  0  0  0  0            999 V2000
M  END
> <Molecule Name>
CVD-0001148

> <SMILES>
ClCC(=O)N1CCN(CC1)C1OC(=O)C(\C=C\c2ccc(cc2)C#N)=C1

$$$$

  CDD

  0  0  0  0  0  0            999 V2000
M  END
> <Molecule Name>
CVD-0001147

> <SMILES>
ClCC(=O)N(C1CS(=O)(=O)C=C1)c1nn(c(Cl)c1Cc1ccc(nc1)C#N)C1=CCCCO1

$$$$

  CDD

  0  0  0  0  0  0            999 V2000
M  END
> <Molecule Name>
CVD-0001146

> <SMILES>
Oc1cnc(o1)N1CNCc2nc(N(C3CS(=O)(=O)C=C3)C(=O)CCl)c(Oc3ccc(nc3)C#N)cc12

$$$$

  CDD

  0  0  0  0  0  0            999 V2000
M  END
> <Molecule Name>
CVD-0001145

> <SMILES>
Nc1c([S+]([O-])c2ccc(nc2)C#N)c(nn1C1CC(O)C1)N(C1CS(=O)(=O)C=C1)C(=O)CCl

$$$$

  CDD

  0  0  0  0  0  0            999 V2000
M  END
> <Molecule Name>
CVD-0001144

> <SMILES>
COC(=O)[C@@H]1[C@@H](Oc2c1c(\C=C\C(=O)O[C@@H](Cc1ccc(O)c(O)c1)C(O)=O)ccc2O)c1ccc(O)c(O)c1

$$$$

  CDD

  0  0  0  0  0  0            999 V2000
M  END
> <Molecule Name>
CVD-0001143

> <SMILES>
OC(=O)[C@H](Cc1ccc(O)c(O)c1)OC(=O)\C=C\c1ccc(O)c2O[C@H]([C@@H](C(O)=O)c12)c1ccc(O)c(O)c1

$$$$

  CDD

  0  0  0  0  0  0            999 V2000
M  END
> <Molecule Name>
CVD-0001142

> <SMILES>
NC(=N)Cc1cnccc1CC(=O)c1ccccc1

$$$$

  CDD

  0  0  0  0  0  0            999 V2000
M  END
> <Molecule Name>
CVD-0001141

> <SMILES>
CC(C)CCc1ccccc1CC(=O)c1ccccc1

$$$$

  CDD

  0  0  0  0  0  0            999 V2000
M  END
> <Molecule Name>
CVD-0001140

> <SMILES>
CC(=O)CCc1ccccc1CC(=O)c1ccccc1

$$$$

  CDD

  0  0  0  0  0  0            999 V2000
M  END
> <Molecule Name>
CVD-0001139

> <SMILES>
CC(O)NCC1=C2C=CC=P3=CC(CCC(C4N=CC=N4)C(O)=O)=CC(=C1)[Cu]23

$$$$

  CDD

  0  0  0  0  0  0            999 V2000
M  END
> <Molecule Name>
CVD-0001138

> <SMILES>
OC(CC12C3=CC=CC=[Cu]33=C1[Cu]1(=C2C=CC=C1)=CC=C3)C(C(O)=O)c1ccccc1

$$$$

  CDD

  0  0  0  0  0  0            999 V2000
M  END
> <Molecule Name>
CVD-0001137

> <SMILES>
CC(=O)OC(=O)n1nccc1NC(=O)N1CCCCCO1

$$$$

  CDD

  0  0  0  0  0  0            999 V2000
M  END
> <Molecule Name>
CVD-0001136

> <SMILES>
CC(=O)N1CCN(CC1)C(=O)C(c1cnc[nH]1)c1ncccc1Cl

$$$$

  CDD

  0  0  0  0  0  0            999 V2000
M  END
> <Molecule Name>
CVD-0001135

> <SMILES>
CN(C(=O)N(CCC(C)=O)c1cccnc1)c1cccnc1

$$$$

  CDD

  0  0  0  0  0  0            999 V2000
M  END
> <Molecule Name>
CVD-0001134

> <SMILES>
CC(=O)CC1CCN(C(=O)N1c1cccnc1)c1cccnc1

$$$$

  CDD

  0  0  0  0  0  0            999 V2000
M  END
> <Molecule Name>
CVD-0001133

> <SMILES>
NC(=N)CCCN(C(=O)Nc1cccnc1)c1ccccc1

$$$$

  CDD

  0  0  0  0  0  0            999 V2000
M  END
> <Molecule Name>
CVD-0001132

> <SMILES>
NC(N)=NCCN(C(=O)Nc1cccnc1)c1ccccc1

$$$$

  CDD

  0  0  0  0  0  0            999 V2000
M  END
> <Molecule Name>
CVD-0001131

> <SMILES>
OC(=O)CCCN(C(=O)Nc1cccnc1)c1ccccc1

$$$$

  CDD

  0  0  0  0  0  0            999 V2000
M  END
> <Molecule Name>
CVD-0001130

> <SMILES>
[O-][N+](=O)CCCN(C(=O)Nc1cccnc1)c1ccccc1

$$$$

  CDD

  0  0  0  0  0  0            999 V2000
M  END
> <Molecule Name>
CVD-0001129

> <SMILES>
OC(=O)c1cccc(c1)N(C(=O)Nc1cccnc1)c1ccccc1

$$$$

  CDD

  0  0  0  0  0  0            999 V2000
M  END
> <Molecule Name>
CVD-0001128

> <SMILES>
[O-][N+](=O)c1cccc(c1)N(C(=O)Nc1cccnc1)c1ccccc1

$$$$

  CDD

  0  0  0  0  0  0            999 V2000
M  END
> <Molecule Name>
CVD-0001127

> <SMILES>
NC(=N)c1cccc(c1)N(C(=O)Nc1cccnc1)c1ccccc1

$$$$

  CDD

  0  0  0  0  0  0            999 V2000
M  END
> <Molecule Name>
CVD-0001126

> <SMILES>
NS(=O)(=O)c1cc2cc(F)ccc2[nH]1

$$$$

  CDD

  0  0  0  0  0  0            999 V2000
M  END
> <Molecule Name>
CVD-0001125

> <SMILES>
CS(=O)(=O)NCCc1c[nH]c2c(CCNS(C)(=O)=O)cccc12

$$$$

  CDD

  0  0  0  0  0  0            999 V2000
M  END
> <Molecule Name>
CVD-0001124

> <SMILES>
CS(=O)(=O)NCCc1cccc2c3CCN(Cc3[nH]c12)S(C)(=O)=O

$$$$

  CDD

  0  0  0  0  0  0            999 V2000
M  END
> <Molecule Name>
CVD-0001123

> <SMILES>
CC(=O)N1CCc2c(C1)[nH]c1c(CCNS(C)(=O)=O)cccc21

$$$$

  CDD

  0  0  0  0  0  0            999 V2000
M  END
> <Molecule Name>
CVD-0001122

> <SMILES>
CC(=O)NCCc1c[nH]c2c(CCNS(C)(=O)=O)cc(F)cc12

$$$$

  CDD

  0  0  0  0  0  0            999 V2000
M  END
> <Molecule Name>
CVD-0001121

> <SMILES>
CC(=O)NCCn1cc(CC(=O)Nc2cccnc2)c2ccccc12

$$$$

  CDD

  0  0  0  0  0  0            999 V2000
M  END
> <Molecule Name>
CVD-0001120

> <SMILES>
CC(=O)NCCc1cn(CC(=O)Nc2cccnc2)c2ccccc12

$$$$

  CDD

  0  0  0  0  0  0            999 V2000
M  END
> <Molecule Name>
CVD-0001119

> <SMILES>
CC(=O)NCCn1cc(CC(=O)Nc2c[nH]c3ncccc23)c2ccccc12

$$$$

  CDD

  0  0  0  0  0  0            999 V2000
M  END
> <Molecule Name>
CVD-0001118

> <SMILES>
CC(=O)NCCc1cn(CC(=O)Nc2c[nH]c3ncccc23)c2ccccc12

$$$$

  CDD

  0  0  0  0  0  0            999 V2000
M  END
> <Molecule Name>
CVD-0001117

> <SMILES>
CC(=O)NCCc1cn(CC(=O)Cc2cccnc2)c2c(CCNS(C)(=O)=O)cccc12

$$$$

  CDD

  0  0  0  0  0  0            999 V2000
M  END
> <Molecule Name>
CVD-0001116

> <SMILES>
CS(=O)(=O)NCCc1cccc2ccn(CC(=O)Nc3cccnc3)c12

$$$$

  CDD

  0  0  0  0  0  0            999 V2000
M  END
> <Molecule Name>
CVD-0001115

> <SMILES>
NC(=O)C1CCCN1c1ccccc1N1CCN(CC1)C(=O)CCl

$$$$

  CDD

  0  0  0  0  0  0            999 V2000
M  END
> <Molecule Name>
CVD-0001114

> <SMILES>
CS(=O)(=O)N(CCc1ccccc1)CC1CCN(CC1)C(=O)CCl

$$$$

  CDD

  0  0  0  0  0  0            999 V2000
M  END
> <Molecule Name>
CVD-0001113

> <SMILES>
CC(=O)NCCc1c[nH]c2c(CN3CCN(CC3)C(=O)CCl)cccc12

$$$$

  CDD

  0  0  0  0  0  0            999 V2000
M  END
> <Molecule Name>
CVD-0001112

> <SMILES>
ClCC(=O)Nc1nc2c(cccc2s1)S(=O)(=O)NCCc1ccccc1

$$$$

  CDD

  0  0  0  0  0  0            999 V2000
M  END
> <Molecule Name>
CVD-0001111

> <SMILES>
CS(=O)(=O)N1CCN(CC1c1ccccc1)C(=O)CCl

$$$$

  CDD

  0  0  0  0  0  0            999 V2000
M  END
> <Molecule Name>
CVD-0001110

> <SMILES>
CC(=O)NCCc1c[nH]c2c(CNC(=O)CCl)cccc12

$$$$

  CDD

  0  0  0  0  0  0            999 V2000
M  END
> <Molecule Name>
CVD-0001109

> <SMILES>
CS(=O)(=O)NCCN(C(=O)Cc1cccnc1)c1cccc2cc[nH]c12

$$$$

  CDD

  0  0  0  0  0  0            999 V2000
M  END
> <Molecule Name>
CVD-0001108

> <SMILES>
NC(=O)C1CCCN1c1ccccc1CN1CCN(CC1)C(=O)CCl

$$$$

  CDD

  0  0  0  0  0  0            999 V2000
M  END
> <Molecule Name>
CVD-0001107

> <SMILES>
Cn1ccc2cccc(N(CCNS(C)(=O)=O)C(=O)Cc3cccnc3)c12

$$$$

  CDD

  0  0  0  0  0  0            999 V2000
M  END
> <Molecule Name>
CVD-0001106

> <SMILES>
Cn1ccc2cccc(N(C3CCC(O)CC3)C(=O)Cc3cccnc3)c12

$$$$

  CDD

  0  0  0  0  0  0            999 V2000
M  END
> <Molecule Name>
CVD-0001105

> <SMILES>
Cn1ccc2cccc(N(C3CCC(O)CC3)C(=O)Nc3cccnc3)c12

$$$$

  CDD

  0  0  0  0  0  0            999 V2000
M  END
> <Molecule Name>
CVD-0001104

> <SMILES>
OC1CCC(CC1)N(C(=O)Nc1cccnc1)c1cccc2cc[nH]c12

$$$$

  CDD

  0  0  0  0  0  0            999 V2000
M  END
> <Molecule Name>
CVD-0001103

> <SMILES>
OC1CCC(CC1)N(C(=O)Cc1cccnc1)c1cccc2cc[nH]c12

$$$$

  CDD

  0  0  0  0  0  0            999 V2000
M  END
> <Molecule Name>
CVD-0001102

> <SMILES>
CS(=O)(=O)NCCN1CCCc2ccc(cc12)S(N)(=O)=O

$$$$

  CDD

  0  0  0  0  0  0            999 V2000
M  END
> <Molecule Name>
CVD-0001101

> <SMILES>
CC(=O)NCCc1cn(CC(=O)N2CCOCC2)c2ccccc12

$$$$

  CDD

  0  0  0  0  0  0            999 V2000
M  END
> <Molecule Name>
CVD-0001100

> <SMILES>
CC(=O)NCCc1c[nH]c2ccc(cc12)C#N

$$$$

  CDD

  0  0  0  0  0  0            999 V2000
M  END
> <Molecule Name>
CVD-0001099

> <SMILES>
CC(=O)NCCc1c[nH]c2c(CN3CCC(O)CC3)cccc12

$$$$

  CDD

  0  0  0  0  0  0            999 V2000
M  END
> <Molecule Name>
CVD-0001098

> <SMILES>
NC(=O)[C@@H]1CN(C[C@H]1c1ccccc1)C1CCOCC1

$$$$

  CDD

  0  0  0  0  0  0            999 V2000
M  END
> <Molecule Name>
CVD-0001097

> <SMILES>
NC(=O)[C@@H]1CN(Cc2cccnc2)C[C@H]1c1ccccc1

$$$$

  CDD

  0  0  0  0  0  0            999 V2000
M  END
> <Molecule Name>
CVD-0001096

> <SMILES>
Cc1ccncc1NC(=O)C(CNS(C)(=O)=O)c1ccccc1

$$$$

  CDD

  0  0  0  0  0  0            999 V2000
M  END
> <Molecule Name>
CVD-0001095

> <SMILES>
CS(=O)(=O)NCC(C(=O)Nc1cccnc1)c1ccccc1

$$$$

  CDD

  0  0  0  0  0  0            999 V2000
M  END
> <Molecule Name>
CVD-0001094

> <SMILES>
CS(=O)(=O)NCN(C(=O)Nc1ccccc1)c1ccccc1

$$$$

  CDD

  0  0  0  0  0  0            999 V2000
M  END
> <Molecule Name>
CVD-0001093

> <SMILES>
CCOc1ccccc1C(=O)\C=C\c1cc(C)cc(Br)c1O

$$$$

  CDD

  0  0  0  0  0  0            999 V2000
M  END
> <Molecule Name>
CVD-0001092

> <SMILES>
CCOc1ccccc1\C=C\C(=O)c1cc(C)cc(I)c1O

$$$$

  CDD

  0  0  0  0  0  0            999 V2000
M  END
> <Molecule Name>
CVD-0001091

> <SMILES>
CCOc1ccccc1\C=C\C(=O)c1cc(Cl)cc(I)c1O

$$$$

  CDD

  0  0  0  0  0  0            999 V2000
M  END
> <Molecule Name>
CVD-0001090

> <SMILES>
CCOc1ccccc1\C=C\C(=O)c1cc(C)cc(Br)c1O

$$$$

  CDD

  0  0  0  0  0  0            999 V2000
M  END
> <Molecule Name>
CVD-0001089

> <SMILES>
CCOc1ccccc1\C=C\C(=O)c1cc(Cl)cc(Br)c1O

$$$$

  CDD

  0  0  0  0  0  0            999 V2000
M  END
> <Molecule Name>
CVD-0001088

> <SMILES>
CCOc1ccc(\C=C\C(=O)c2cc(I)cc(I)c2O)cc1

$$$$

  CDD

  0  0  0  0  0  0            999 V2000
M  END
> <Molecule Name>
CVD-0001087

> <SMILES>
CCOc1ccc(\C=C\C(=O)c2cc(C)cc(I)c2O)cc1

$$$$

  CDD

  0  0  0  0  0  0            999 V2000
M  END
> <Molecule Name>
CVD-0001086

> <SMILES>
CCOc1ccc(\C=C\C(=O)c2cc(Cl)cc(I)c2O)cc1

$$$$

  CDD

  0  0  0  0  0  0            999 V2000
M  END
> <Molecule Name>
CVD-0001085

> <SMILES>
CCOc1ccc(\C=C\C(=O)c2cc(C)cc(Br)c2O)cc1

$$$$

  CDD

  0  0  0  0  0  0            999 V2000
M  END
> <Molecule Name>
CVD-0001084

> <SMILES>
CCOc1ccccc1\C=C\C(=O)c1cc(I)cc(I)c1O

$$$$

  CDD

  0  0  0  0  0  0            999 V2000
M  END
> <Molecule Name>
CVD-0001083

> <SMILES>
CCOc1ccc(\C=C\C(=O)c2cc(Cl)cc(Br)c2O)cc1

$$$$

  CDD

  0  0  0  0  0  0            999 V2000
M  END
> <Molecule Name>
CVD-0001082

> <SMILES>
[O-][N+](=O)c1cccc(c1)C(=O)\C=C\c1cnc2ccccc2n1

$$$$

  CDD

  0  0  0  0  0  0            999 V2000
M  END
> <Molecule Name>
CVD-0001081

> <SMILES>
[O-][N+](=O)c1ccc(cc1)C(=O)\C=C\c1cnc2ccccc2n1

$$$$

  CDD

  0  0  0  0  0  0            999 V2000
M  END
> <Molecule Name>
CVD-0001080

> <SMILES>
COc1ccc(cc1)C(=O)\C=C\c1cnc2ccccc2n1

$$$$

  CDD

  0  0  0  0  0  0            999 V2000
M  END
> <Molecule Name>
CVD-0001079

> <SMILES>
Cc1ccc(cc1)C(=O)\C=C\c1cnc2ccccc2n1

$$$$

  CDD

  0  0  0  0  0  0            999 V2000
M  END
> <Molecule Name>
CVD-0001078

> <SMILES>
Ic1ccc(cc1)C(=O)\C=C\c1cnc2ccccc2n1

$$$$

  CDD

  0  0  0  0  0  0            999 V2000
M  END
> <Molecule Name>
CVD-0001077

> <SMILES>
Brc1ccc(cc1)C(=O)\C=C\c1cnc2ccccc2n1

$$$$

  CDD

  0  0  0  0  0  0            999 V2000
M  END
> <Molecule Name>
CVD-0001076

> <SMILES>
Clc1ccc(cc1)C(=O)\C=C\c1cnc2ccccc2n1

$$$$

  CDD

  0  0  0  0  0  0            999 V2000
M  END
> <Molecule Name>
CVD-0001075

> <SMILES>
Nc1ccccc1C(=O)\C=C\c1cnc2ccccc2n1

$$$$

  CDD

  0  0  0  0  0  0            999 V2000
M  END
> <Molecule Name>
CVD-0001074

> <SMILES>
Fc1ccc(cc1)C(=O)\C=C\c1cnc2ccccc2n1

$$$$

  CDD

  0  0  0  0  0  0            999 V2000
M  END
> <Molecule Name>
CVD-0001073

> <SMILES>
O=C(\C=C\c1cnc2ccccc2n1)c1cccc2ccccc12

$$$$

  CDD

  0  0  0  0  0  0            999 V2000
M  END
> <Molecule Name>
CVD-0001072

> <SMILES>
O=C(\C=C\c1cnc2ccccc2n1)c1ccc2ccccc2c1

$$$$

  CDD

  0  0  0  0  0  0            999 V2000
M  END
> <Molecule Name>
CVD-0001071

> <SMILES>
O=C(\C=C\c1cnc2ccccc2n1)c1ccccn1

$$$$

  CDD

  0  0  0  0  0  0            999 V2000
M  END
> <Molecule Name>
CVD-0001070

> <SMILES>
O=C(\C=C\c1cnc2ccccc2n1)c1cccnc1

$$$$

  CDD

  0  0  0  0  0  0            999 V2000
M  END
> <Molecule Name>
CVD-0001069

> <SMILES>
O=C(\C=C\c1cnc2ccccc2n1)c1ccncc1

$$$$

  CDD

  0  0  0  0  0  0            999 V2000
M  END
> <Molecule Name>
CVD-0001068

> <SMILES>
Nc1cccc(c1)C(=O)\C=C\c1cnc2ccccc2n1

$$$$

  CDD

  0  0  0  0  0  0            999 V2000
M  END
> <Molecule Name>
CVD-0001067

> <SMILES>
Nc1ccc(cc1)C(=O)\C=C\c1cnc2ccccc2n1

$$$$

  CDD

  0  0  0  0  0  0            999 V2000
M  END
> <Molecule Name>
CVD-0001066

> <SMILES>
Oc1cccc(c1)C(=O)\C=C\c1cnc2ccccc2n1

$$$$

  CDD

  0  0  0  0  0  0            999 V2000
M  END
> <Molecule Name>
CVD-0001065

> <SMILES>
Oc1ccc(cc1)C(=O)\C=C\c1cnc2ccccc2n1

$$$$

  CDD

  0  0  0  0  0  0            999 V2000
M  END
> <Molecule Name>
CVD-0001064

> <SMILES>
Brc1cccc(c1)C(=O)\C=C\c1cnc2ccccc2n1

$$$$

  CDD

  0  0  0  0  0  0            999 V2000
M  END
> <Molecule Name>
CVD-0001063

> <SMILES>
O=C(\C=C\c1cnc2ccccc2n1)c1ccccc1

$$$$

  CDD

  0  0  0  0  0  0            999 V2000
M  END
> <Molecule Name>
CVD-0001062

> <SMILES>
[O-][N+](=O)c1cc(F)cc2cc(-c3nc4cc(Br)ccc4o3)c(Cl)nc12

$$$$

  CDD

  0  0  0  0  0  0            999 V2000
M  END
> <Molecule Name>
CVD-0001061

> <SMILES>
[O-][N+](=O)c1ccc2nc(Cl)c(cc2c1)-c1nc2cc(Br)ccc2o1

$$$$

  CDD

  0  0  0  0  0  0            999 V2000
M  END
> <Molecule Name>
CVD-0001060

> <SMILES>
Clc1nc2ccc(Br)cc2cc1-c1nc2cc(Br)ccc2o1

$$$$

  CDD

  0  0  0  0  0  0            999 V2000
M  END
> <Molecule Name>
CVD-0001059

> <SMILES>
Clc1ccc2nc(Cl)c(cc2c1)-c1nc2cc(Br)ccc2o1

$$$$

  CDD

  0  0  0  0  0  0            999 V2000
M  END
> <Molecule Name>
CVD-0001058

> <SMILES>
Fc1ccc2nc(Cl)c(cc2c1)-c1nc2cc(Br)ccc2o1

$$$$

  CDD

  0  0  0  0  0  0            999 V2000
M  END
> <Molecule Name>
CVD-0001057

> <SMILES>
Clc1nc2ccccc2cc1-c1nc2cc(Br)ccc2o1

$$$$

  CDD

  0  0  0  0  0  0            999 V2000
M  END
> <Molecule Name>
CVD-0001056

> <SMILES>
Clc1nc2ccccc2cc1-c1nc2ccccc2o1

$$$$

  CDD

  0  0  0  0  0  0            999 V2000
M  END
> <Molecule Name>
CVD-0001055

> <SMILES>
Brc1ccc2oc(nc2c1)-c1cnc2ccccc2n1

$$$$

  CDD

  0  0  0  0  0  0            999 V2000
M  END
> <Molecule Name>
CVD-0001054

> <SMILES>
[O-][N+](=O)c1cc([N+]([O-])=O)c2nc(Cl)c(cc2c1)-c1nc2cc(Br)ccc2o1

$$$$

  CDD

  0  0  0  0  0  0            999 V2000
M  END
> <Molecule Name>
CVD-0001053

> <SMILES>
[O-][N+](=O)c1cc(Br)cc2cc(-c3nc4cc(Br)ccc4o3)c(Cl)nc12

$$$$

  CDD

  0  0  0  0  0  0            999 V2000
M  END
> <Molecule Name>
CVD-0001052

> <SMILES>
[O-][N+](=O)c1cc(Cl)cc2cc(-c3nc4cc(Br)ccc4o3)c(Cl)nc12

$$$$

  CDD

  0  0  0  0  0  0            999 V2000
M  END
> <Molecule Name>
CVD-0001051

> <SMILES>
O1C2C=CC=CC2N=C1c1cnc2ccccc2n1

$$$$

  CDD

  0  0  0  0  0  0            999 V2000
M  END
> <Molecule Name>
CVD-0001050

> <SMILES>
[O-][N+](=O)c1ccc(c(c1)[N+]([O-])=O)-n1nc(cc1-c1cnc2ccccc2n1)-c1ccc(F)cc1

$$$$

  CDD

  0  0  0  0  0  0            999 V2000
M  END
> <Molecule Name>
CVD-0001049

> <SMILES>
[O-][N+](=O)c1ccc(c(c1)[N+]([O-])=O)-n1nc(cc1-c1ccc(Br)cc1)-c1ccc2ccccc2c1

$$$$

  CDD

  0  0  0  0  0  0            999 V2000
M  END
> <Molecule Name>
CVD-0001048

> <SMILES>
[O-][N+](=O)c1ccc(c(c1)[N+]([O-])=O)-n1nc(cc1-c1ccc(Cl)cc1)-c1ccc2ccccc2c1

$$$$

  CDD

  0  0  0  0  0  0            999 V2000
M  END
> <Molecule Name>
CVD-0001047

> <SMILES>
[O-][N+](=O)c1ccc(c(c1)[N+]([O-])=O)-n1nc(cc1-c1ccc(F)cc1)-c1ccncc1

$$$$

  CDD

  0  0  0  0  0  0            999 V2000
M  END
> <Molecule Name>
CVD-0001046

> <SMILES>
[O-][N+](=O)c1ccc(c(c1)[N+]([O-])=O)-n1nc(cc1-c1ccc(F)cc1)-c1cccnc1

$$$$

  CDD

  0  0  0  0  0  0            999 V2000
M  END
> <Molecule Name>
CVD-0001045

> <SMILES>
[O-][N+](=O)c1ccc(c(c1)[N+]([O-])=O)-n1nc(cc1-c1ccc(F)cc1)-c1ccccn1

$$$$

  CDD

  0  0  0  0  0  0            999 V2000
M  END
> <Molecule Name>
CVD-0001044

> <SMILES>
[O-][N+](=O)c1ccc(c(c1)[N+]([O-])=O)-n1nc(cc1-c1ccc(F)cc1)-c1cccc2ccccc12

$$$$

  CDD

  0  0  0  0  0  0            999 V2000
M  END
> <Molecule Name>
CVD-0001043

> <SMILES>
[O-][N+](=O)c1ccc(c(c1)[N+]([O-])=O)-n1nc(cc1-c1ccc(F)cc1)-c1ccc2ccccc2c1

$$$$

  CDD

  0  0  0  0  0  0            999 V2000
M  END
> <Molecule Name>
CVD-0001042

> <SMILES>
[O-][N+](=O)c1ccc(cc1)-c1cc(-c2ccc(F)cc2)n(n1)-c1ccc(cc1[N+]([O-])=O)[N+]([O-])=O

$$$$

  CDD

  0  0  0  0  0  0            999 V2000
M  END
> <Molecule Name>
CVD-0001041

> <SMILES>
Fc1ccc(cc1)C(=O)N1CCC(CC1)C(=O)Nc1nnc(o1)-c1ccccn1

$$$$

  CDD

  0  0  0  0  0  0            999 V2000
M  END
> <Molecule Name>
CVD-0001040

> <SMILES>
FC(F)(F)c1ccc(cc1)C(=O)N1CCC(CC1)C(=O)Nc1nnc(o1)-c1ccccn1

$$$$

  CDD

  0  0  0  0  0  0            999 V2000
M  END
> <Molecule Name>
CVD-0001039

> <SMILES>
COc1ccc(cc1)-c1nc2c(nc(NC(=O)c3cccnc3)nc2n1C)N1CCOCC1

$$$$

  CDD

  0  0  0  0  0  0            999 V2000
M  END
> <Molecule Name>
CVD-0001038

> <SMILES>
CN(C)c1nc(NC(=O)C2CCN(CC2)S(=O)(=O)c2ccc(F)cc2)nc2[nH]cnc12

$$$$

  CDD

  0  0  0  0  0  0            999 V2000
M  END
> <Molecule Name>
CVD-0001037

> <SMILES>
CN(C)c1nc(NC(=O)C2CCN(CC2)C(=O)c2ccccc2)nc2[nH]cnc12

$$$$

  CDD

  0  0  0  0  0  0            999 V2000
M  END
> <Molecule Name>
CVD-0001036

> <SMILES>
COc1ccc(cc1)-c1nc2ccc(NC(=O)C3CCN(CC3)C(=O)c3ccc(cc3)C(F)(F)F)cc2o1

$$$$

  CDD

  0  0  0  0  0  0            999 V2000
M  END
> <Molecule Name>
CVD-0001035

> <SMILES>
COc1ccc(cc1)-c1nc2ccc(NC(=O)C3CCN(CC3)S(=O)(=O)c3ccc(C)cc3)cc2o1

$$$$

  CDD

  0  0  0  0  0  0            999 V2000
M  END
> <Molecule Name>
CVD-0001034

> <SMILES>
Fc1ccc(cc1)S(=O)(=O)N1CCC(CC1)C(=O)Nc1nnc(o1)-c1ccccn1

$$$$

  CDD

  0  0  0  0  0  0            999 V2000
M  END
> <Molecule Name>
CVD-0001033

> <SMILES>
COc1ccc(-c2nc3ccc(NC(=O)C4CCN(CC4)C(=O)C4CCCCC4)cc3o2)c(Br)c1

$$$$

  CDD

  0  0  0  0  0  0            999 V2000
M  END
> <Molecule Name>
CVD-0001032

> <SMILES>
COc1ccc(-c2nc3ccc(NC(=O)C4CCN(CC4)C(=O)c4ccc(cc4)[N+]([O-])=O)cc3o2)c(Br)c1

$$$$

  CDD

  0  0  0  0  0  0            999 V2000
M  END
> <Molecule Name>
CVD-0001031

> <SMILES>
COc1ccc(-c2nc3ccc(NC(=O)C4CCN(CC4)C(=O)c4ccc(cc4)C(F)(F)F)cc3o2)c(Br)c1

$$$$

  CDD

  0  0  0  0  0  0            999 V2000
M  END
> <Molecule Name>
CVD-0001030

> <SMILES>
COc1ccc(cc1)-c1nc2ccc(NC(=O)C3CCN(CC3)C(=O)c3ccc(cc3)C#N)cc2o1

$$$$

  CDD

  0  0  0  0  0  0            999 V2000
M  END
> <Molecule Name>
CVD-0001029

> <SMILES>
COc1ccc(cc1)-c1nc2ccc(NC(=O)C3CCN(CC3)C(=O)c3ccc(cc3)[N+]([O-])=O)cc2o1

$$$$

  CDD

  0  0  0  0  0  0            999 V2000
M  END
> <Molecule Name>
CVD-0001028

> <SMILES>
COc1ccc(cc1)-c1nc2ccc(NC(=O)C3CCN(CC3)C(=O)c3ccc(CN(C)C)cc3)cc2o1

$$$$

  CDD

  0  0  0  0  0  0            999 V2000
M  END
> <Molecule Name>
CVD-0001027

> <SMILES>
CN(C)c1nc(NC(=O)C2CCN(CC2)C(=O)c2ccc(cc2)[N+]([O-])=O)nc2[nH]cnc12

$$$$

  CDD

  0  0  0  0  0  0            999 V2000
M  END
> <Molecule Name>
CVD-0001026

> <SMILES>
CN(C)c1nc(NC(=O)C2CCN(CC2)C(=O)c2ccc(F)cc2)nc2[nH]cnc12

$$$$

  CDD

  0  0  0  0  0  0            999 V2000
M  END
> <Molecule Name>
CVD-0001025

> <SMILES>
COc1ccc(cc1)-c1nc2ccc(NC(=O)C3CCN(CC3)C(=O)c3ccccc3)cc2o1

$$$$

  CDD

  0  0  0  0  0  0            999 V2000
M  END
> <Molecule Name>
CVD-0001024

> <SMILES>
Fc1ccc(NC(=O)N2CCC(Cc3ccccc3)CC2)cc1Cl

$$$$

  CDD

  0  0  0  0  0  0            999 V2000
M  END
> <Molecule Name>
CVD-0001023

> <SMILES>
COc1ccc(CNC(=N)N2CCC(Cc3ccccc3)CC2)cc1

$$$$

  CDD

  0  0  0  0  0  0            999 V2000
M  END
> <Molecule Name>
CVD-0001022

> <SMILES>
FC(F)(F)c1ccccc1NC(=O)N1CCC(Cc2ccccc2)CC1

$$$$

  CDD

  0  0  0  0  0  0            999 V2000
M  END
> <Molecule Name>
CVD-0001021

> <SMILES>
COc1ccc(NC(=O)N2CCC(Cc3ccccc3)CC2)cc1

$$$$

  CDD

  0  0  0  0  0  0            999 V2000
M  END
> <Molecule Name>
CVD-0001020

> <SMILES>
NC(=N)N1CCC(Cc2ccccc2)CC1

$$$$

  CDD

  0  0  0  0  0  0            999 V2000
M  END
> <Molecule Name>
CVD-0001019

> <SMILES>
O=C(OCc1ccccc1)N1CCC(Cc2ccccc2)CC1

$$$$

  CDD

  0  0  0  0  0  0            999 V2000
M  END
> <Molecule Name>
CVD-0001018

> <SMILES>
COC(=O)N1CCC(Cc2ccccc2)CC1

$$$$

  CDD

  0  0  0  0  0  0            999 V2000
M  END
> <Molecule Name>
CVD-0001017

> <SMILES>
CC(=O)N1CCC(Cc2ccccc2)CC1

$$$$

  CDD

  0  0  0  0  0  0            999 V2000
M  END
> <Molecule Name>
CVD-0001016

> <SMILES>
CCNC(=N)N1CCC(Cc2ccccc2)CC1

$$$$

  CDD

  0  0  0  0  0  0            999 V2000
M  END
> <Molecule Name>
CVD-0001015

> <SMILES>
COc1ccccc1NC(=O)N1CCC(Cc2ccccc2)CC1

$$$$

  CDD

  0  0  0  0  0  0            999 V2000
M  END
> <Molecule Name>
CVD-0001014

> <SMILES>
FC(F)(F)c1ccc(cc1)C(=O)N1CCC(Cc2ccccc2)CC1

$$$$

  CDD

  0  0  0  0  0  0            999 V2000
M  END
> <Molecule Name>
CVD-0001013

> <SMILES>
COc1ccc(cc1)C(=O)N1CCC(Cc2ccccc2)CC1

$$$$

  CDD

  0  0  0  0  0  0            999 V2000
M  END
> <Molecule Name>
CVD-0001012

> <SMILES>
CC(C)(C)C(=O)N1CCC(Cc2ccccc2)CC1

$$$$

  CDD

  0  0  0  0  0  0            999 V2000
M  END
> <Molecule Name>
CVD-0001011

> <SMILES>
O=C(N1CCC(Cc2ccccc2)CC1)c1cnccn1

$$$$

  CDD

  0  0  0  0  0  0            999 V2000
M  END
> <Molecule Name>
CVD-0001010

> <SMILES>
O=C(N1CCC(Cc2ccccc2)CC1)c1cc[nH]c1

$$$$

  CDD

  0  0  0  0  0  0            999 V2000
M  END
> <Molecule Name>
CVD-0001009

> <SMILES>
C(N1CCNCC1)c1ccccc1

$$$$

  CDD

  0  0  0  0  0  0            999 V2000
M  END
> <Molecule Name>
CVD-0001008

> <SMILES>
COc1ccc(cc1)-c1nc2ccc(cc2o1)-c1ccc(NC(=O)c2ccc(F)cc2)nc1

$$$$

  CDD

  0  0  0  0  0  0            999 V2000
M  END
> <Molecule Name>
CVD-0001007

> <SMILES>
COc1ccc(cc1)-c1nc2ccc(cc2o1)-c1ccc(NC(=O)c2ccccc2)nc1

$$$$

  CDD

  0  0  0  0  0  0            999 V2000
M  END
> <Molecule Name>
CVD-0001006

> <SMILES>
COc1ccc(-c2nc3ccc(NC(=O)C4CCN(CC4)S(=O)(=O)c4ccccc4)cc3o2)c(Br)c1

$$$$

  CDD

  0  0  0  0  0  0            999 V2000
M  END
> <Molecule Name>
CVD-0001005

> <SMILES>
COc1ccc(-c2nc3ccc(NC(=O)C4CCN(CC4)S(=O)(=O)c4ccc(C)cc4)cc3o2)c(Br)c1

$$$$

  CDD

  0  0  0  0  0  0            999 V2000
M  END
> <Molecule Name>
CVD-0001004

> <SMILES>
COc1ccc(-c2nc3ccc(NC(=O)C4CCN(CC4)S(=O)(=O)c4ccc(cc4)[N+]([O-])=O)cc3o2)c(Br)c1

$$$$

  CDD

  0  0  0  0  0  0            999 V2000
M  END
> <Molecule Name>
CVD-0001003

> <SMILES>
COc1ccc(-c2nc3ccc(NC(=O)C4CCN(CC4)S(=O)(=O)Cc4ccccc4)cc3o2)c(Br)c1

$$$$

  CDD

  0  0  0  0  0  0            999 V2000
M  END
> <Molecule Name>
CVD-0001002

> <SMILES>
COc1ccc(cc1)-c1nc2ccc(NC(=O)C3CCN(CC3)S(=O)(=O)c3ccc(cc3)[N+]([O-])=O)cc2o1

$$$$

  CDD

  0  0  0  0  0  0            999 V2000
M  END
> <Molecule Name>
CVD-0001001

> <SMILES>
COc1ccc(cc1)-c1nc2ccc(NC(=O)C3CCN(CC3)S(=O)(=O)C3CC3)cc2o1

$$$$

  CDD

  0  0  0  0  0  0            999 V2000
M  END
> <Molecule Name>
CVD-0001000

> <SMILES>
Brc1ccc(s1)-c1nnc(NCc2ccccc2)s1

$$$$

  CDD

  0  0  0  0  0  0            999 V2000
M  END
> <Molecule Name>
CVD-0000999

> <SMILES>
Fc1ccc(cc1)C(=O)Nc1nnc(s1)-c1ccc(Br)s1

$$$$

  CDD

  0  0  0  0  0  0            999 V2000
M  END
> <Molecule Name>
CVD-0000998

> <SMILES>
CCCCc1ccc(CNc2ccc(cn2)-c2ccc3nc(oc3c2)-c2ccc(OC)cc2)cc1

$$$$

  CDD

  0  0  0  0  0  0            999 V2000
M  END
> <Molecule Name>
CVD-0000997

> <SMILES>
COc1ccc(cc1)-c1nc2ccc(cc2o1)-c1ccc(NCc2ccc(cc2)C(C)(C)C)nc1

$$$$

  CDD

  0  0  0  0  0  0            999 V2000
M  END
> <Molecule Name>
CVD-0000996

> <SMILES>
COc1ccc(cc1)-c1nc2ccc(cc2o1)-c1ccc(NCc2ccccc2)nc1

$$$$

  CDD

  0  0  0  0  0  0            999 V2000
M  END
> <Molecule Name>
CVD-0000995

> <SMILES>
COc1ccc(cc1)-c1nc2ccc(NC(=O)C3CCN(CC3)S(=O)(=O)c3ccccc3)cc2o1

$$$$

  CDD

  0  0  0  0  0  0            999 V2000
M  END
> <Molecule Name>
CVD-0000994

> <SMILES>
Brc1ccc(s1)-c1nnc(NC(=O)C2CCCC2)s1

$$$$

  CDD

  0  0  0  0  0  0            999 V2000
M  END
> <Molecule Name>
CVD-0000993

> <SMILES>
Brc1ccc(s1)-c1nnc(NC(=O)c2ccccc2)s1

$$$$

  CDD

  0  0  0  0  0  0            999 V2000
M  END
> <Molecule Name>
CVD-0000992

> <SMILES>
Brc1ccc(s1)-c1nnc(NC(=O)C2CCN(CC2)C(=O)c2ccccc2)s1

$$$$

  CDD

  0  0  0  0  0  0            999 V2000
M  END
> <Molecule Name>
CVD-0000991

> <SMILES>
COc1ccc(-c2nc3ccc(NC(=O)C4CCN(Cc5ccc(CF)cc5)CC4)cc3o2)c(Br)c1

$$$$

  CDD

  0  0  0  0  0  0            999 V2000
M  END
> <Molecule Name>
CVD-0000990

> <SMILES>
CCCCc1ccc(CN2CCC(CC2)C(=O)Nc2ccc3nc(oc3c2)-c2ccc(OC)cc2Br)cc1

$$$$

  CDD

  0  0  0  0  0  0            999 V2000
M  END
> <Molecule Name>
CVD-0000989

> <SMILES>
COc1ccc(-c2nc3ccc(NC(=O)C4CCN(Cc5ccc(cc5)[N+]([O-])=O)CC4)cc3o2)c(Br)c1

$$$$

  CDD

  0  0  0  0  0  0            999 V2000
M  END
> <Molecule Name>
CVD-0000988

> <SMILES>
COc1ccc(-c2nc3ccc(NC(=O)C4CCN(Cc5ccc(C)cc5)CC4)cc3o2)c(Br)c1

$$$$

  CDD

  0  0  0  0  0  0            999 V2000
M  END
> <Molecule Name>
CVD-0000987

> <SMILES>
COc1ccc(-c2nc3ccc(NC(=O)C4CCN(Cc5ccccc5)CC4)cc3o2)c(Br)c1

$$$$

  CDD

  0  0  0  0  0  0            999 V2000
M  END
> <Molecule Name>
CVD-0000986

> <SMILES>
COc1ccc(cc1)-c1nc2ccc(NC(=O)C3CCN(Cc4ccc(cc4)C(F)(F)F)CC3)cc2o1

$$$$

  CDD

  0  0  0  0  0  0            999 V2000
M  END
> <Molecule Name>
CVD-0000985

> <SMILES>
COc1ccc(cc1)-c1nc2ccc(NC(=O)C3CCN(Cc4ccc(cc4)[N+]([O-])=O)CC3)cc2o1

$$$$

  CDD

  0  0  0  0  0  0            999 V2000
M  END
> <Molecule Name>
CVD-0000984

> <SMILES>
COc1ccc(cc1)-c1nc2ccc(NC(=O)C3CCN(Cc4ccc(Br)cc4)CC3)cc2o1

$$$$

  CDD

  0  0  0  0  0  0            999 V2000
M  END
> <Molecule Name>
CVD-0000983

> <SMILES>
COc1ccc(cc1)-c1nc2c(Cl)nc(NC(=O)C3CCN(Cc4ccc(Br)cc4)CC3)nc2n1C

$$$$

  CDD

  0  0  0  0  0  0            999 V2000
M  END
> <Molecule Name>
CVD-0000982

> <SMILES>
COc1ccc(cc1)-c1nc2c(Cl)nc(NC(=O)C3CCN(Cc4ccc(cc4)[N+]([O-])=O)CC3)nc2n1C

$$$$

  CDD

  0  0  0  0  0  0            999 V2000
M  END
> <Molecule Name>
CVD-0000981

> <SMILES>
COc1ccc(cc1)-c1nc2c(Cl)nc(NC(=O)Cc3ccc(Cl)cc3)nc2n1C

$$$$

  CDD

  0  0  0  0  0  0            999 V2000
M  END
> <Molecule Name>
CVD-0000980

> <SMILES>
Cc1ccc(CN2CCC(CC2)C(=O)Nc2nnc(o2)-c2ccccn2)cc1

$$$$

  CDD

  0  0  0  0  0  0            999 V2000
M  END
> <Molecule Name>
CVD-0000979

> <SMILES>
COc1ccc(-c2nc3ccc(NC(=O)C4CCN(CC(=O)c5ccccc5)CC4)cc3o2)c(Br)c1

$$$$

  CDD

  0  0  0  0  0  0            999 V2000
M  END
> <Molecule Name>
CVD-0000978

> <SMILES>
COc1ccc(-c2nc3ccc(NC(=O)C4CCN(CC(=O)c5ccc(Cl)cc5)CC4)cc3o2)c(Br)c1

$$$$

  CDD

  0  0  0  0  0  0            999 V2000
M  END
> <Molecule Name>
CVD-0000977

> <SMILES>
COc1ccc(-c2nc3ccc(NC(=O)C4CCN(Cc5c(F)cccc5F)CC4)cc3o2)c(Br)c1

$$$$

  CDD

  0  0  0  0  0  0            999 V2000
M  END
> <Molecule Name>
CVD-0000976

> <SMILES>
COc1ccc(cc1)-c1nc2ccc(NC(=O)C3CCN(Cc4ccccc4)CC3)cc2o1

$$$$

  CDD

  0  0  0  0  0  0            999 V2000
M  END
> <Molecule Name>
CVD-0000975

> <SMILES>
CN(c1nccnc1C#N)S(C)(=O)=O

$$$$

  CDD

  0  0  0  0  0  0            999 V2000
M  END
> <Molecule Name>
CVD-0000974

> <SMILES>
COc1cc(Nc2ccc(cc2S(N)(=O)=O)C2NC(=O)c3ccccc23)c(C)cn1

$$$$

  CDD

  0  0  0  0  0  0            999 V2000
M  END
> <Molecule Name>
CVD-0000973

> <SMILES>
CN1CCN(CC1)c1ccc(cc1S(N)(=O)=O)C1NC(=O)c2ccccc12

$$$$

  CDD

  0  0  0  0  0  0            999 V2000
M  END
> <Molecule Name>
CVD-0000972

> <SMILES>
CCC(C)N1CCN(CC1)c1ccc(cc1S(N)(=O)=O)C1NC(=O)c2ccccc12

$$$$

  CDD

  0  0  0  0  0  0            999 V2000
M  END
> <Molecule Name>
CVD-0000971

> <SMILES>
NS(=O)(=O)c1cc(ccc1N1CCN(CC1)C(=O)c1cnccn1)C1NC(=O)c2ccccc12

$$$$

  CDD

  0  0  0  0  0  0            999 V2000
M  END
> <Molecule Name>
CVD-0000970

> <SMILES>
NS(=O)(=O)c1cc(ccc1N1CCN(CC1)C(=O)CO)C1NC(=O)c2ccccc12

$$$$

  CDD

  0  0  0  0  0  0            999 V2000
M  END
> <Molecule Name>
CVD-0000969

> <SMILES>
NS(=O)(=O)c1cc(ccc1N1CCN(CC#N)CC1)C1NC(=O)c2ccccc12

$$$$

  CDD

  0  0  0  0  0  0            999 V2000
M  END
> <Molecule Name>
CVD-0000968

> <SMILES>
NS(=O)(=O)c1cc(ccc1N1CCN(CC1)S(=O)(=O)C=C)C1NC(=O)c2ccccc12

$$$$

  CDD

  0  0  0  0  0  0            999 V2000
M  END
> <Molecule Name>
CVD-0000967

> <SMILES>
NS(=O)(=O)c1cc(ccc1N1CCN(CC1)C(=O)C=C)C1NC(=O)c2ccccc12

$$$$

  CDD

  0  0  0  0  0  0            999 V2000
M  END
> <Molecule Name>
CVD-0000966

> <SMILES>
CC(C)CN1CCN(CC1)c1ccc(cc1S(N)(=O)=O)C1NC(=O)c2ccccc12

$$$$

  CDD

  0  0  0  0  0  0            999 V2000
M  END
> <Molecule Name>
CVD-0000965

> <SMILES>
CC(=O)N1CCN(CC1c1cccc(c1)N1CCCC1=O)C(O)c1cccs1

$$$$

  CDD

  0  0  0  0  0  0            999 V2000
M  END
> <Molecule Name>
CVD-0000964

> <SMILES>
CC(=O)N1CCN(Cc2cccs2)C2CC(=O)N(C12)c1cnccc1C

$$$$

  CDD

  0  0  0  0  0  0            999 V2000
M  END
> <Molecule Name>
CVD-0000963

> <SMILES>
CC(=O)N1C2C(CC(=O)N2c2cnccc2C)N(CC1c1cccc(c1)N1CCCC1=O)C(O)c1cccs1

$$$$

  CDD

  0  0  0  0  0  0            999 V2000
M  END
> <Molecule Name>
CVD-0000962

> <SMILES>
CC(=O)N1CCN(CC1CNS(=O)(=O)c1ccc(C)cc1)C(O)c1cccs1

$$$$

  CDD

  0  0  0  0  0  0            999 V2000
M  END
> <Molecule Name>
CVD-0000961

> <SMILES>
CC(=O)N1C2C(CC(=O)N2c2cnccc2C)N(CC1CNS(=O)(=O)c1ccc(C)cc1)C(O)c1cccs1

$$$$

  CDD

  0  0  0  0  0  0            999 V2000
M  END
> <Molecule Name>
CVD-0000960

> <SMILES>
CC(=O)N1CCN(C(O)c2cccs2)C2CC(=O)N(C12)c1cnccc1C

$$$$

  CDD

  0  0  0  0  0  0            999 V2000
M  END
> <Molecule Name>
CVD-0000959

> <SMILES>
CC(=O)Nc1cncc2CN(CCc12)C(=O)NC1CCCCC1

$$$$

  CDD

  0  0  0  0  0  0            999 V2000
M  END
> <Molecule Name>
CVD-0000958

> <SMILES>
Cc1csc2CNC3CC(O)CCN3Cc12

$$$$

  CDD

  0  0  0  0  0  0            999 V2000
M  END
> <Molecule Name>
CVD-0000957

> <SMILES>
CC(=O)Nc1cncc(CCNC(=O)c2ccccc2F)c1C

$$$$

  CDD

  0  0  0  0  0  0            999 V2000
M  END
> <Molecule Name>
CVD-0000956

> <SMILES>
Cc1cscc1C(NC(=O)Nc1cccnc1)N1CCC(O)CC1

$$$$

  CDD

  0  0  0  0  0  0            999 V2000
M  END
> <Molecule Name>
CVD-0000955

> <SMILES>
CC1CSCC1(CN1CCC(O)CC1)CC(=O)Nc1cnccc1C

$$$$

  CDD

  0  0  0  0  0  0            999 V2000
M  END
> <Molecule Name>
CVD-0000954

> <SMILES>
CCOc1cccc(c1)C1C(Cc2c[nH]c3ncccc23)N(C(C2CC2)c2ccccc12)C(C)=O

$$$$

  CDD

  0  0  0  0  0  0            999 V2000
M  END
> <Molecule Name>
CVD-0000953

> <SMILES>
CCOC1CCC(C#N)c2cc(sc12)-c1nnco1

$$$$

  CDD

  0  0  0  0  0  0            999 V2000
M  END
> <Molecule Name>
CVD-0000952

> <SMILES>
CCOc1cccc(c1)C1C(Cc2c[nH]c3ncccc23)N(Cc2ccccc12)C(C)=O

$$$$

  CDD

  0  0  0  0  0  0            999 V2000
M  END
> <Molecule Name>
CVD-0000951

> <SMILES>
CC(=O)N1CC(c2ccccc2C1)c1cc2[nH]cc(C3CC3)c2cc1Cl

$$$$

  CDD

  0  0  0  0  0  0            999 V2000
M  END
> <Molecule Name>
CVD-0000950

> <SMILES>
ClC1CC2C(NC=C2C2CC2)c2sc(cc12)-c1nnco1

$$$$

  CDD

  0  0  0  0  0  0            999 V2000
M  END
> <Molecule Name>
CVD-0000949

> <SMILES>
O=C1Cc2cc(sc2-c2ccccc12)-c1nnco1

$$$$

  CDD

  0  0  0  0  0  0            999 V2000
M  END
> <Molecule Name>
CVD-0000948

> <SMILES>
NC(=O)c1cc2CC(=O)c3ccccc3-c2s1

$$$$

  CDD

  0  0  0  0  0  0            999 V2000
M  END
> <Molecule Name>
CVD-0000947

> <SMILES>
NC(=O)c1cc2C(Cl)CC3C(NC=C3C3CC3)c2s1

$$$$

  CDD

  0  0  0  0  0  0            999 V2000
M  END
> <Molecule Name>
CVD-0000946

> <SMILES>
CCOC1CCC(C#N)c2cc(sc12)C(N)=O

$$$$

  CDD

  0  0  0  0  0  0            999 V2000
M  END
> <Molecule Name>
CVD-0000945

> <SMILES>
OC(=O)c1c[nH]c2c(F)c(F)c(F)cc2c1=O

$$$$

  CDD

  0  0  0  0  0  0            999 V2000
M  END
> <Molecule Name>
CVD-0000944

> <SMILES>
OC(=O)c1c[nH]c2cc(F)ccc2c1=O

$$$$

  CDD

  0  0  0  0  0  0            999 V2000
M  END
> <Molecule Name>
CVD-0000943

> <SMILES>
Fc1ccc(O[C@@H]2CC=CC(=O)N2c2ccc([nH]2)-c2cc[nH]c2)cc1

$$$$

  CDD

  0  0  0  0  0  0            999 V2000
M  END
> <Molecule Name>
CVD-0000942

> <SMILES>
Fc1ccc(O[C@@H]2CC(=O)CC(=O)N2c2ccc([nH]2)-c2cc[nH]c2)cc1

$$$$

  CDD

  0  0  0  0  0  0            999 V2000
M  END
> <Molecule Name>
CVD-0000941

> <SMILES>
Fc1ccc(cc1)[C@H](NC(=O)c1cccs1)[C@@H]1CC=CC(=O)N1

$$$$

  CDD

  0  0  0  0  0  0            999 V2000
M  END
> <Molecule Name>
CVD-0000940

> <SMILES>
Fc1ccc(cc1)[C@H](NC(=O)c1cccs1)[C@@H]1CNC(=O)C=C1

$$$$

  CDD

  0  0  0  0  0  0            999 V2000
M  END
> <Molecule Name>
CVD-0000939

> <SMILES>
Fc1ccc(cc1)[C@H](NC(=O)c1cccs1)[C@H]1CC=CC(=O)N1

$$$$

  CDD

  0  0  0  0  0  0            999 V2000
M  END
> <Molecule Name>
CVD-0000938

> <SMILES>
Fc1ccc(cc1)[C@H](NC(=O)c1cccs1)C1CC(=O)CC(=O)C1

$$$$

  CDD

  0  0  0  0  0  0            999 V2000
M  END
> <Molecule Name>
CVD-0000937

> <SMILES>
Fc1ccc(cc1)[C@H](NS(=O)(=O)c1cccs1)C1CC(=O)CC(=O)C1

$$$$

  CDD

  0  0  0  0  0  0            999 V2000
M  END
> <Molecule Name>
CVD-0000936

> <SMILES>
C[C@H](N[C@@H](CCc1ccccc1)C(=O)OCS)C(=O)N1CCC[C@H]1C(O)=O

$$$$

  CDD

  0  0  0  0  0  0            999 V2000
M  END
> <Molecule Name>
CVD-0000935

> <SMILES>
CCC(=O)OC(OP(=O)(CCCCc1ccccc1)CC(=O)N1C[C@@H](C[C@H]1C(O)=O)C1CCCCC1)C(C)=C

$$$$

  CDD

  0  0  0  0  0  0            999 V2000
M  END
> <Molecule Name>
CVD-0000934

> <SMILES>
CCC(=O)OC(OP(=O)(CCCCc1ccccc1)CC(=O)N1C[C@@H](C[C@H]1C(O)=O)C1CCCCC1)C(C)C

$$$$

  CDD

  0  0  0  0  0  0            999 V2000
M  END
> <Molecule Name>
CVD-0000933

> <SMILES>
CCOC(=O)[C@H](CCc1ccccc1)N[C@@H](C)C(=O)N1CCC[C@H]1C(O)=O

$$$$

  CDD

  0  0  0  0  0  0            999 V2000
M  END
> <Molecule Name>
CVD-0000932

> <SMILES>
CC(N)NC(CC(N)=O)C(=O)NC1CCC(CN1C(=O)CCl)c1nc2cc(Cc3ccc(cc3)S(N)(=O)=O)ccc2s1

$$$$

  CDD

  0  0  0  0  0  0            999 V2000
M  END
> <Molecule Name>
CVD-0000931

> <SMILES>
CC(N)NC(CC(N)=O)C(=O)NC1CCC(CN1C(=O)CCl)c1nc2c(cccc2s1)-c1ccc(O)c(c1)S(N)(=O)=O

$$$$

  CDD

  0  0  0  0  0  0            999 V2000
M  END
> <Molecule Name>
CVD-0000930

> <SMILES>
CC(N)NC(CC(N)=O)C(=O)NC1CCC(CN1C(=O)CCl)c1nc2cc(ccc2s1)-c1ccc(O)c(c1)S(N)(=O)=O

$$$$

  CDD

  0  0  0  0  0  0            999 V2000
M  END
> <Molecule Name>
CVD-0000929

> <SMILES>
CC(N)NC(CC(N)=O)C(=O)NC1CCC(CN1C(=O)CCl)c1nc2c(cccc2s1)-c1ccc(c(O)c1)S(N)(=O)=O

$$$$

  CDD

  0  0  0  0  0  0            999 V2000
M  END
> <Molecule Name>
CVD-0000928

> <SMILES>
CC(N)NC(CC(N)=O)C(=O)NC1CCC(CN1C(=O)CCl)c1nc2cc(ccc2s1)-c1ccc(c(O)c1)S(N)(=O)=O

$$$$

  CDD

  0  0  0  0  0  0            999 V2000
M  END
> <Molecule Name>
CVD-0000927

> <SMILES>
CC(N)NC(CC(N)=O)C(=O)NC1CCC(CN1C(=O)CCl)c1nc2c(cccc2s1)-c1cccc(c1)S(N)(=O)=O

$$$$

  CDD

  0  0  0  0  0  0            999 V2000
M  END
> <Molecule Name>
CVD-0000926

> <SMILES>
CC(N)NC(CC(N)=O)C(=O)NC1CCC(CN1C(=O)CCl)c1nc2cc(ccc2s1)-c1cccc(c1)S(N)(=O)=O

$$$$

  CDD

  0  0  0  0  0  0            999 V2000
M  END
> <Molecule Name>
CVD-0000925

> <SMILES>
CC(N)NC(CC(N)=O)C(=O)NC1CCC(CN1C(=O)CCl)c1nc2c(cccc2s1)-c1ccc(cc1)S(N)(=O)=O

$$$$

  CDD

  0  0  0  0  0  0            999 V2000
M  END
> <Molecule Name>
CVD-0000924

> <SMILES>
CC(N)NC(CC(N)=O)C(=O)NC1CCC(CN1C(=O)CCl)c1nc2cc(Cc3cccc(c3)S(N)(=O)=O)ccc2s1

$$$$

  CDD

  0  0  0  0  0  0            999 V2000
M  END
> <Molecule Name>
CVD-0000923

> <SMILES>
CC(N)NC(CC(N)=O)C(=O)NC1CCC(CN1C(=O)CCl)c1nc2cc(ccc2s1)-c1ccc(cc1)S(N)(=O)=O

$$$$

  CDD

  0  0  0  0  0  0            999 V2000
M  END
> <Molecule Name>
CVD-0000922

> <SMILES>
Cc1ccc2C(C3CS(=O)(=O)CC3N3CCCC3=O)N(C(=O)CCl)C(=O)C(c3ccc(O)cc3)c2c1

$$$$

  CDD

  0  0  0  0  0  0            999 V2000
M  END
> <Molecule Name>
CVD-0000921

> <SMILES>
Cc1ccc2C(C3CS(=O)(=O)CC3N3CCCC3=O)N(C(=O)CCl)C(=O)C(c3cccc(O)c3)c2c1

$$$$

  CDD

  0  0  0  0  0  0            999 V2000
M  END
> <Molecule Name>
CVD-0000920

> <SMILES>
Cc1ccc2C(C3CS(=O)(=O)CC3N3CCCC3=O)N(C(=O)CCl)C(=O)C(c3ccccc3)c2c1

$$$$

  CDD

  0  0  0  0  0  0            999 V2000
M  END
> <Molecule Name>
CVD-0000919

> <SMILES>
Oc1ccc2C(C3CS(=O)(=O)CC3N3CCCC3=O)N(C(=O)CCl)C(=O)C(c3ccccc3)c2c1

$$$$

  CDD

  0  0  0  0  0  0            999 V2000
M  END
> <Molecule Name>
CVD-0000918

> <SMILES>
Fc1ccc2C(C3CS(=O)(=O)CC3N3CCCC3=O)N(C(=O)CCl)C(=O)C(c3ccccc3)c2c1

$$$$

  CDD

  0  0  0  0  0  0            999 V2000
M  END
> <Molecule Name>
CVD-0000917

> <SMILES>
Oc1ccc2C(C3CS(=O)(=O)CC3N3CCCC3=O)N(CC(c3ccccc3)c2c1)C(=O)CCl

$$$$

  CDD

  0  0  0  0  0  0            999 V2000
M  END
> <Molecule Name>
CVD-0000916

> <SMILES>
Fc1ccc2C(C3CS(=O)(=O)CC3N3CCCC3=O)N(CC(c3ccccc3)c2c1)C(=O)CCl

$$$$

  CDD

  0  0  0  0  0  0            999 V2000
M  END
> <Molecule Name>
CVD-0000915

> <SMILES>
Cc1ccc2C(C3CS(=O)(=O)CC3N3CCCC3=O)N(CC(c3ccccc3)c2c1)C(=O)CCl

$$$$

  CDD

  0  0  0  0  0  0            999 V2000
M  END
> <Molecule Name>
CVD-0000914

> <SMILES>
CC(NC(=O)CCl)C1=CC(Cl)=CC2CSCC12

$$$$

  CDD

  0  0  0  0  0  0            999 V2000
M  END
> <Molecule Name>
CVD-0000913

> <SMILES>
CC(NC(=O)CCl)C1=CC(Cl)=CC2N=CCC12

$$$$

  CDD

  0  0  0  0  0  0            999 V2000
M  END
> <Molecule Name>
CVD-0000912

> <SMILES>
CC(NC(=O)CCl)C1=CC(Cl)=CC2CC=NC12

$$$$

  CDD

  0  0  0  0  0  0            999 V2000
M  END
> <Molecule Name>
CVD-0000911

> <SMILES>
CC(NC(=O)CCl)C1=CC(Cl)=CC2CNCC12

$$$$

  CDD

  0  0  0  0  0  0            999 V2000
M  END
> <Molecule Name>
CVD-0000910

> <SMILES>
CC(NC(=O)CCl)C1=CC(Cl)=CC2NCCC12

$$$$

  CDD

  0  0  0  0  0  0            999 V2000
M  END
> <Molecule Name>
CVD-0000909

> <SMILES>
CC(NC(=O)CCl)C1=CC(Cl)=CC2CCNC12

$$$$

  CDD

  0  0  0  0  0  0            999 V2000
M  END
> <Molecule Name>
CVD-0000908

> <SMILES>
CC(NC(=O)CCl)C1=CC(Cl)=CC2CCCC12

$$$$

  CDD

  0  0  0  0  0  0            999 V2000
M  END
> <Molecule Name>
CVD-0000907

> <SMILES>
CC(NC(=O)CCl)c1cc(Cl)cc2CC=CCc12

$$$$

  CDD

  0  0  0  0  0  0            999 V2000
M  END
> <Molecule Name>
CVD-0000906

> <SMILES>
CC(=O)NC(CC(N)=O)C1CN(CCN1C(O)CO)C(O)CCl

$$$$

  CDD

  0  0  0  0  0  0            999 V2000
M  END
> <Molecule Name>
CVD-0000905

> <SMILES>
CCC(O)N1CCN(CC1C(CC(N)=O)NC(C)=O)C(O)CCl

$$$$

  CDD

  0  0  0  0  0  0            999 V2000
M  END
> <Molecule Name>
CVD-0000904

> <SMILES>
CC(O)N1CCN(CC1C(CC(N)=O)NC(=O)CN)C(O)CCl

$$$$

  CDD

  0  0  0  0  0  0            999 V2000
M  END
> <Molecule Name>
CVD-0000903

> <SMILES>
CC(O)N1CCN(CC1C(CC(N)=O)NC(=O)CC(N)=O)C(O)CCl

$$$$

  CDD

  0  0  0  0  0  0            999 V2000
M  END
> <Molecule Name>
CVD-0000902

> <SMILES>
CCC(=O)NC(CC(N)=O)C1CN(CCN1C(C)O)C(O)CCl

$$$$

  CDD

  0  0  0  0  0  0            999 V2000
M  END
> <Molecule Name>
CVD-0000901

> <SMILES>
CC(O)N1CCN(CC1C(CC(N)=O)NC(N)=O)C(O)CCl

$$$$

  CDD

  0  0  0  0  0  0            999 V2000
M  END
> <Molecule Name>
CVD-0000900

> <SMILES>
CC(O)N1CCN(CC1C(CC(N)=O)NC(C)=O)C(O)CCl

$$$$

  CDD

  0  0  0  0  0  0            999 V2000
M  END
> <Molecule Name>
CVD-0000899

> <SMILES>
NS(=O)(=O)c1ccc(cc1O)C1CCC(CN2CCN(CC2)C(O)CCl)S1

$$$$

  CDD

  0  0  0  0  0  0            999 V2000
M  END
> <Molecule Name>
CVD-0000898

> <SMILES>
NS(=O)(=O)c1ccc(cc1)C1CCC(CN2CCN(CC2)C(O)CCl)S1

$$$$

  CDD

  0  0  0  0  0  0            999 V2000
M  END
> <Molecule Name>
CVD-0000897

> <SMILES>
CC(=O)Nc1scc(C#N)c1CN1CCN(CC1)C(=O)CCl

$$$$

  CDD

  0  0  0  0  0  0            999 V2000
M  END
> <Molecule Name>
CVD-0000896

> <SMILES>
OCNc1scc(C#N)c1CN1CCN(CC1)C(=O)CCl

$$$$

  CDD

  0  0  0  0  0  0            999 V2000
M  END
> <Molecule Name>
CVD-0000895

> <SMILES>
CCNc1scc(C#N)c1CN1CCN(CC1)C(=O)CCl

$$$$

  CDD

  0  0  0  0  0  0            999 V2000
M  END
> <Molecule Name>
CVD-0000894

> <SMILES>
OCNc1cc(CN2CCN(CC2)C(=O)CCl)c(cn1)C#N

$$$$

  CDD

  0  0  0  0  0  0            999 V2000
M  END
> <Molecule Name>
CVD-0000893

> <SMILES>
CCNc1cc(CN2CCN(CC2)C(=O)CCl)c(cn1)C#N

$$$$

  CDD

  0  0  0  0  0  0            999 V2000
M  END
> <Molecule Name>
CVD-0000892

> <SMILES>
ClCC(=O)N1CCN(Cc2sccc2C#N)CC1

$$$$

  CDD

  0  0  0  0  0  0            999 V2000
M  END
> <Molecule Name>
CVD-0000891

> <SMILES>
ClCC(=O)N1CC(c2ccccc2)c2ccccc2C1C1CS(=O)(=O)CC1N1CCCC1=O

$$$$

  CDD

  0  0  0  0  0  0            999 V2000
M  END
> <Molecule Name>
CVD-0000890

> <SMILES>
ClCC(=O)N1CC(c2ccccc2)c2ccccc2C1c1cccc(c1)N1CCCC1=O

$$$$

  CDD

  0  0  0  0  0  0            999 V2000
M  END
> <Molecule Name>
CVD-0000889

> <SMILES>
CC(C)N(C)C(=O)C1CCN(CC1CC1C=CC=S1)C(=O)CCl

$$$$

  CDD

  0  0  0  0  0  0            999 V2000
M  END
> <Molecule Name>
CVD-0000888

> <SMILES>
NS(=O)(=O)C1CCc2cc(ccc2C1)C1CN(Cc2ccccc12)C(=O)CCl

$$$$

  CDD

  0  0  0  0  0  0            999 V2000
M  END
> <Molecule Name>
CVD-0000887

> <SMILES>
NS(=O)(=O)C1CCc2ccc(cc2C1)C1CN(Cc2ccccc12)C(=O)CCl

$$$$

  CDD

  0  0  0  0  0  0            999 V2000
M  END
> <Molecule Name>
CVD-0000886

> <SMILES>
CC(NC(=O)CCl)c1cc(F)cc(Cl)c1

$$$$

  CDD

  0  0  0  0  0  0            999 V2000
M  END
> <Molecule Name>
CVD-0000885

> <SMILES>
CN(C)CC(NC(=O)CCl)c1cccc(Cl)c1

$$$$

  CDD

  0  0  0  0  0  0            999 V2000
M  END
> <Molecule Name>
CVD-0000884

> <SMILES>
OCC(NC(=O)CCl)c1cccc(Cl)c1

$$$$

  CDD

  0  0  0  0  0  0            999 V2000
M  END
> <Molecule Name>
CVD-0000883

> <SMILES>
CC(NC(=O)CCl)c1cc(Cl)ccc1O

$$$$

  CDD

  0  0  0  0  0  0            999 V2000
M  END
> <Molecule Name>
CVD-0000882

> <SMILES>
CC(NC(=O)CCl)c1cc(O)cc(Cl)c1

$$$$

  CDD

  0  0  0  0  0  0            999 V2000
M  END
> <Molecule Name>
CVD-0000881

> <SMILES>
CC(NC(=O)CCl)c1ccc(O)c(Cl)c1

$$$$

  CDD

  0  0  0  0  0  0            999 V2000
M  END
> <Molecule Name>
CVD-0000880

> <SMILES>
CC(=O)NC(C(=O)NC(NC(=O)CCl)c1cccc(Cl)c1)c1ccc(O)cc1

$$$$

  CDD

  0  0  0  0  0  0            999 V2000
M  END
> <Molecule Name>
CVD-0000879

> <SMILES>
CC(=O)NC(C#CC(NC(=O)CCl)c1cccc(Cl)c1)c1ccc(O)cc1

$$$$

  CDD

  0  0  0  0  0  0            999 V2000
M  END
> <Molecule Name>
CVD-0000878

> <SMILES>
CC(=O)NC(\C=C\C(NC(=O)CCl)c1cccc(Cl)c1)c1ccc(O)cc1

$$$$

  CDD

  0  0  0  0  0  0            999 V2000
M  END
> <Molecule Name>
CVD-0000877

> <SMILES>
CC(=O)NC(CCC(NC(=O)CCl)c1cccc(Cl)c1)c1ccc(O)cc1

$$$$

  CDD

  0  0  0  0  0  0            999 V2000
M  END
> <Molecule Name>
CVD-0000876

> <SMILES>
Fc1ccc(cc1)C1C(Cc2cccnc2)N(Cc2ccccc12)C(=O)CCl

$$$$

  CDD

  0  0  0  0  0  0            999 V2000
M  END
> <Molecule Name>
CVD-0000875

> <SMILES>
ClCC(=O)N1Cc2ccccc2C(C1C(=O)Nc1ccncc1)c1ccccc1

$$$$

  CDD

  0  0  0  0  0  0            999 V2000
M  END
> <Molecule Name>
CVD-0000874

> <SMILES>
ClCC(=O)N1Cc2ccccc2C(C1C(=O)Nc1cccnc1)c1ccccc1

$$$$

  CDD

  0  0  0  0  0  0            999 V2000
M  END
> <Molecule Name>
CVD-0000873

> <SMILES>
Cc1ccccc1C1C(Cc2cccnc2)N(Cc2ccccc12)C(=O)CCl

$$$$

  CDD

  0  0  0  0  0  0            999 V2000
M  END
> <Molecule Name>
CVD-0000872

> <SMILES>
ClCC(=O)N1Cc2ccccc2C(C1Cc1cccnc1)c1cccc(Cl)c1

$$$$

  CDD

  0  0  0  0  0  0            999 V2000
M  END
> <Molecule Name>
CVD-0000871

> <SMILES>
ClCC(=O)N1Cc2ccccc2C(C1C#Cc1cccnc1)c1ccccc1

$$$$

  CDD

  0  0  0  0  0  0            999 V2000
M  END
> <Molecule Name>
CVD-0000870

> <SMILES>
ClCC(=O)N1Cc2ccccc2C(C1Nc1cccnc1)c1ccccc1

$$$$

  CDD

  0  0  0  0  0  0            999 V2000
M  END
> <Molecule Name>
CVD-0000869

> <SMILES>
ClCC(=O)N1Cc2ccccc2C(C1Cc1cccnc1)c1ccccc1

$$$$

  CDD

  0  0  0  0  0  0            999 V2000
M  END
> <Molecule Name>
CVD-0000868

> <SMILES>
CC(NC(=O)CCl)c1cc(Cl)cc(c1)C(=O)C1C=CC(=C1)S(N)(=O)=O

$$$$

  CDD

  0  0  0  0  0  0            999 V2000
M  END
> <Molecule Name>
CVD-0000867

> <SMILES>
CC(NC(=O)CCl)c1cc(Cl)cc(CC2C=CC(=C2)S(N)(=O)=O)c1

$$$$

  CDD

  0  0  0  0  0  0            999 V2000
M  END
> <Molecule Name>
CVD-0000866

> <SMILES>
CC(NC(=O)CCl)c1cc(Cl)cc(c1)-c1ccc(c(C)c1)S(N)(=O)=O

$$$$

  CDD

  0  0  0  0  0  0            999 V2000
M  END
> <Molecule Name>
CVD-0000865

> <SMILES>
CC(NC(=O)CCl)c1cc(Cl)cc(c1)-c1ccc(c(O)c1)S(N)(=O)=O

$$$$

  CDD

  0  0  0  0  0  0            999 V2000
M  END
> <Molecule Name>
CVD-0000864

> <SMILES>
CC(NC(=O)CCl)c1cc(Cl)cc(c1)-c1ccc(cc1)S(N)(=O)=O

$$$$

  CDD

  0  0  0  0  0  0            999 V2000
M  END
> <Molecule Name>
CVD-0000863

> <SMILES>
FC1CCCCC1S(=O)(=O)N1CNC(C(=O)CCl)C(=O)C1

$$$$

  CDD

  0  0  0  0  0  0            999 V2000
M  END
> <Molecule Name>
CVD-0000862

> <SMILES>
ClCC(=O)N1CCN(Cc2cccs2)CC1C1CCCNC1Cl

$$$$

  CDD

  0  0  0  0  0  0            999 V2000
M  END
> <Molecule Name>
CVD-0000861

> <SMILES>
C[C@H]1c2c(F)cc(cc2N(CC1(F)F)C1CCOCC1)[S@@](C)(=N)=O

$$$$

  CDD

  0  0  0  0  0  0            999 V2000
M  END
> <Molecule Name>
CVD-0000860

> <SMILES>
C[C@H]1c2ccc(cc2N(CC1(F)F)C1CCOCC1)[S@@](C)(=N)=O

$$$$

  CDD

  0  0  0  0  0  0            999 V2000
M  END
> <Molecule Name>
CVD-0000859

> <SMILES>
CC1(C)c2ccc(cc2N(CC1(F)F)C1CCOCC1)[S@@](C)(=N)=O

$$$$

  CDD

  0  0  0  0  0  0            999 V2000
M  END
> <Molecule Name>
CVD-0000858

> <SMILES>
C[C@H]1c2c(F)nc(cc2N(CC1(F)F)C1CCOCC1)[S@@](C)(=N)=O

$$$$

  CDD

  0  0  0  0  0  0            999 V2000
M  END
> <Molecule Name>
CVD-0000857

> <SMILES>
C[C@H]1c2cnc(cc2N(CC1(F)F)C1CCOCC1)[S@@](C)(=N)=O

$$$$

  CDD

  0  0  0  0  0  0            999 V2000
M  END
> <Molecule Name>
CVD-0000856

> <SMILES>
CN1C[C@H](OCCC1=O)c1ccc2c(c1)C(=O)N=[S@@]2(C)=O

$$$$

  CDD

  0  0  0  0  0  0            999 V2000
M  END
> <Molecule Name>
CVD-0000855

> <SMILES>
CNC(=O)N=[S@@](C)(=O)c1ccc(cn1)C(=O)OC

$$$$

  CDD

  0  0  0  0  0  0            999 V2000
M  END
> <Molecule Name>
CVD-0000854

> <SMILES>
CN1C[C@H](OCCC1=O)c1ccc2c(c1)C(=O)N=[S@]2(C)=O

$$$$

  CDD

  0  0  0  0  0  0            999 V2000
M  END
> <Molecule Name>
CVD-0000853

> <SMILES>
C[C@H]1[C@H](OCCC(=O)N1C)c1ccc2c(c1)C(=O)N=[S@]2(C)=O

$$$$

  CDD

  0  0  0  0  0  0            999 V2000
M  END
> <Molecule Name>
CVD-0000852

> <SMILES>
CC(=O)N(C(=O)Nc1ccccc1)c1cccnc1

$$$$

  CDD

  0  0  0  0  0  0            999 V2000
M  END
> <Molecule Name>
CVD-0000851

> <SMILES>
O=C1C(OCCN1c1cccnc1)c1ccccc1

$$$$

  CDD

  0  0  0  0  0  0            999 V2000
M  END
> <Molecule Name>
CVD-0000850

> <SMILES>
O=C1C(CCCN1c1cccnc1)c1ccccc1

$$$$

  CDD

  0  0  0  0  0  0            999 V2000
M  END
> <Molecule Name>
CVD-0000849

> <SMILES>
O=C1N(CCCN1c1cccnc1)c1ccccc1

$$$$

  CDD

  0  0  0  0  0  0            999 V2000
M  END
> <Molecule Name>
CVD-0000848

> <SMILES>
O=C1CN(CCN1c1ccccc1)c1cccnc1

$$$$

  CDD

  0  0  0  0  0  0            999 V2000
M  END
> <Molecule Name>
CVD-0000847

> <SMILES>
O=C1CC(CCN1c1ccccc1)c1cccnc1

$$$$

  CDD

  0  0  0  0  0  0            999 V2000
M  END
> <Molecule Name>
CVD-0000846

> <SMILES>
O=c1n(ccn1-c1cccnc1)-c1ccccc1

$$$$

  CDD

  0  0  0  0  0  0            999 V2000
M  END
> <Molecule Name>
CVD-0000845

> <SMILES>
O=C1NC(CCN1c1ccccc1)c1cccnc1

$$$$

  CDD

  0  0  0  0  0  0            999 V2000
M  END
> <Molecule Name>
CVD-0000844

> <SMILES>
O=C(Nc1ccccc1)N(c1cccnc1)c1ccccn1

$$$$

  CDD

  0  0  0  0  0  0            999 V2000
M  END
> <Molecule Name>
CVD-0000843

> <SMILES>
O=C1C(C=CCN1c1cccnc1)c1ccccc1

$$$$

  CDD

  0  0  0  0  0  0            999 V2000
M  END
> <Molecule Name>
CVD-0000842

> <SMILES>
O=C1CN(CCCN1c1cccnc1)c1ccccc1

$$$$

  CDD

  0  0  0  0  0  0            999 V2000
M  END
> <Molecule Name>
CVD-0000841

> <SMILES>
O=C1N(CCCCN1c1cccnc1)c1ccccc1

$$$$

  CDD

  0  0  0  0  0  0            999 V2000
M  END
> <Molecule Name>
CVD-0000840

> <SMILES>
O=C1N(CCN1c1cccnc1)c1ccccc1

$$$$

  CDD

  0  0  0  0  0  0            999 V2000
M  END
> <Molecule Name>
CVD-0000839

> <SMILES>
NS(=O)(=O)c1ccc2c(CN3CCN(CC3)C(=O)CCl)cccc2c1

$$$$

  CDD

  0  0  0  0  0  0            999 V2000
M  END
> <Molecule Name>
CVD-0000838

> <SMILES>
ClCC(=O)N1CCN(Cc2cc(Cl)cc3ccccc23)CC1

$$$$

  CDD

  0  0  0  0  0  0            999 V2000
M  END
> <Molecule Name>
CVD-0000837

> <SMILES>
COc1cc(CN2CCN(CC2)C(=O)CCl)c2ccccc2c1

$$$$

  CDD

  0  0  0  0  0  0            999 V2000
M  END
> <Molecule Name>
CVD-0000836

> <SMILES>
ClCC(=O)N1CCN(Cc2cc(cc3ccccc23)C#N)CC1

$$$$

  CDD

  0  0  0  0  0  0            999 V2000
M  END
> <Molecule Name>
CVD-0000835

> <SMILES>
CCNc1ncc(OC)cc1CN1CCN(CC1)C(=O)CCl

$$$$

  CDD

  0  0  0  0  0  0            999 V2000
M  END
> <Molecule Name>
CVD-0000834

> <SMILES>
CCNc1ccc(cc1CN1CCN(CC1)C(=O)CCl)C#N

$$$$

  CDD

  0  0  0  0  0  0            999 V2000
M  END
> <Molecule Name>
CVD-0000833

> <SMILES>
Fc1cc(CN2CCN(CC2)C(=O)CCl)c2ccccc2c1

$$$$

  CDD

  0  0  0  0  0  0            999 V2000
M  END
> <Molecule Name>
CVD-0000832

> <SMILES>
COc1cnc(CNC(=O)N2CCOCC2)c(CN2CCN(CC2)C(=O)CCl)c1

$$$$

  CDD

  0  0  0  0  0  0            999 V2000
M  END
> <Molecule Name>
CVD-0000831

> <SMILES>
ClCC(=O)N1CCN(Cc2cc(cnc2CNC(=O)N2CCOCC2)C#N)CC1

$$$$

  CDD

  0  0  0  0  0  0            999 V2000
M  END
> <Molecule Name>
CVD-0000830

> <SMILES>
ClCC(=O)N1CCN(Cc2cc(ccc2CNC(=O)N2CCOCC2)C#N)CC1

$$$$

  CDD

  0  0  0  0  0  0            999 V2000
M  END
> <Molecule Name>
CVD-0000829

> <SMILES>
CC(=O)NCCc1c[nH]c2c(CN3CCN(CC3)C(=O)CCl)cc(Cl)cc12

$$$$

  CDD

  0  0  0  0  0  0            999 V2000
M  END
> <Molecule Name>
CVD-0000828

> <SMILES>
COc1cc(CN2CCN(CC2)C(=O)CCl)c2[nH]cc(CCNC(C)=O)c2c1

$$$$

  CDD

  0  0  0  0  0  0            999 V2000
M  END
> <Molecule Name>
CVD-0000827

> <SMILES>
COc1cc2C(CCNC(C)=O)=CCc2c(CN2CCN(CC2)C(=O)CCl)c1

$$$$

  CDD

  0  0  0  0  0  0            999 V2000
M  END
> <Molecule Name>
CVD-0000826

> <SMILES>
NS(=O)(=O)c1ccc2c(CN3CCN(CC3)C(=O)CCl)cc(F)cc2c1

$$$$

  CDD

  0  0  0  0  0  0            999 V2000
M  END
> <Molecule Name>
CVD-0000825

> <SMILES>
CC(=O)NCCc1c[nH]c2c(CN3CCN(CC3)C(=O)CCl)cc(F)cc12

$$$$

  CDD

  0  0  0  0  0  0            999 V2000
M  END
> <Molecule Name>
CVD-0000824

> <SMILES>
CC(=O)NCCC1=CCc2c1cc(F)cc2CN1CCN(CC1)C(=O)CCl

$$$$

  CDD

  0  0  0  0  0  0            999 V2000
M  END
> <Molecule Name>
CVD-0000823

> <SMILES>
CCNc1ncc(F)cc1CN1CCN(CC1)C(=O)CCl

$$$$

  CDD

  0  0  0  0  0  0            999 V2000
M  END
> <Molecule Name>
CVD-0000822

> <SMILES>
CCc1cc(OC2CCCCCC2)c2n(Cc3ccccc3)cc(CN(C)C)c2c1

$$$$

  CDD

  0  0  0  0  0  0            999 V2000
M  END
> <Molecule Name>
CVD-0000821

> <SMILES>
CSc1cc(OC2CCCCCC2)c2n(Cc3ccccc3)cc(CN(C)C)c2c1

$$$$

  CDD

  0  0  0  0  0  0            999 V2000
M  END
> <Molecule Name>
CVD-0000820

> <SMILES>
CCc1cc(OC2CCN(C)CC2)c2n(Cc3ccccc3)cc(CN(C)C)c2c1

$$$$

  CDD

  0  0  0  0  0  0            999 V2000
M  END
> <Molecule Name>
CVD-0000819

> <SMILES>
CCc1cc(NC2CCCCC2)c2n(cc(CN(C)C)c2c1)C(=O)c1ccccc1

$$$$

  CDD

  0  0  0  0  0  0            999 V2000
M  END
> <Molecule Name>
CVD-0000818

> <SMILES>
CCc1cc(NC2CCCCC2)c2n(cc(CN(C)C)c2c1)S(=O)(=O)N1CCCCC1

$$$$

  CDD

  0  0  0  0  0  0            999 V2000
M  END
> <Molecule Name>
CVD-0000817

> <SMILES>
CCc1cc(OC2CCCCC2)c2n(CCN3CCN(C)CC3)cc(CN(C)C)c2c1

$$$$

  CDD

  0  0  0  0  0  0            999 V2000
M  END
> <Molecule Name>
CVD-0000816

> <SMILES>
CNCc1c[nH]c2ccc(Cl)cc12

$$$$

  CDD

  0  0  0  0  0  0            999 V2000
M  END
> <Molecule Name>
CVD-0000815

> <SMILES>
CNCc1c[nH]c2ccc(F)cc12

$$$$

  CDD

  0  0  0  0  0  0            999 V2000
M  END
> <Molecule Name>
CVD-0000814

> <SMILES>
COc1ccc2[nH]cc(CN(C)C)c2c1

$$$$

  CDD

  0  0  0  0  0  0            999 V2000
M  END
> <Molecule Name>
CVD-0000813

> <SMILES>
CCCc1cc(CC)cc2c(CN(C)C)c[nH]c12

$$$$

  CDD

  0  0  0  0  0  0            999 V2000
M  END
> <Molecule Name>
CVD-0000812

> <SMILES>
CN(C)Cc1c[nH]c2c(cc(F)cc12)C1=CC=CC1

$$$$

  CDD

  0  0  0  0  0  0            999 V2000
M  END
> <Molecule Name>
CVD-0000811

> <SMILES>
CN(C)Cc1c[nH]c2c(cc(F)cc12)-c1ccccc1

$$$$

  CDD

  0  0  0  0  0  0            999 V2000
M  END
> <Molecule Name>
CVD-0000810

> <SMILES>
CN(C)Cc1c[nH]c2c(cc(Cl)cc12)N1CCCCCC1

$$$$

  CDD

  0  0  0  0  0  0            999 V2000
M  END
> <Molecule Name>
CVD-0000809

> <SMILES>
CN(C)Cc1c[nH]c2c(cc(F)cc12)N1CCCCCC1

$$$$

  CDD

  0  0  0  0  0  0            999 V2000
M  END
> <Molecule Name>
CVD-0000808

> <SMILES>
CCc1cc(OC2CCCCC2)c2c(cn(CN(C)C)c2c1)S(=O)(=O)c1ccccc1

$$$$

  CDD

  0  0  0  0  0  0            999 V2000
M  END
> <Molecule Name>
CVD-0000807

> <SMILES>
CCc1cc(CC2CCCCC2)c2[nH]cc(CN(C)C)c2c1

$$$$

  CDD

  0  0  0  0  0  0            999 V2000
M  END
> <Molecule Name>
CVD-0000806

> <SMILES>
CCc1cc(N2CCCCCC2)c2scc(CN(C)C)c2c1

$$$$

  CDD

  0  0  0  0  0  0            999 V2000
M  END
> <Molecule Name>
CVD-0000805

> <SMILES>
CCc1cc(OC2CCCCC2)c2[nH]cc(CN(C)C)c2c1

$$$$

  CDD

  0  0  0  0  0  0            999 V2000
M  END
> <Molecule Name>
CVD-0000804

> <SMILES>
CCc1cc(N2CCCCCC2)c2ccn(CN(C)C)c2c1

$$$$

  CDD

  0  0  0  0  0  0            999 V2000
M  END
> <Molecule Name>
CVD-0000803

> <SMILES>
CCc1cc(N2CCCCCC2)c2[nH]cc(CN(C)C)c2c1

$$$$

  CDD

  0  0  0  0  0  0            999 V2000
M  END
> <Molecule Name>
CVD-0000802

> <SMILES>
CCc1cc(NC2CCCCC2)c2[nH]cc(CN(C)C)c2c1

$$$$

  CDD

  0  0  0  0  0  0            999 V2000
M  END
> <Molecule Name>
CVD-0000801

> <SMILES>
CN(C)Cc1c[nH]c2c(cc(CCl)cc12)N1CCCCCC1

$$$$

  CDD

  0  0  0  0  0  0            999 V2000
M  END
> <Molecule Name>
CVD-0000800

> <SMILES>
CN(C)Cc1c[nH]c2c(cc(CF)cc12)N1CCCCCC1

$$$$

  CDD

  0  0  0  0  0  0            999 V2000
M  END
> <Molecule Name>
CVD-0000799

> <SMILES>
COc1cc(N2CCCCCC2)c2[nH]cc(CN(C)C)c2c1

$$$$

  CDD

  0  0  0  0  0  0            999 V2000
M  END
> <Molecule Name>
CVD-0000798

> <SMILES>
CCc1ccc2n(cc(CN(C)C)c2c1)C(=O)c1ccccc1

$$$$

  CDD

  0  0  0  0  0  0            999 V2000
M  END
> <Molecule Name>
CVD-0000797

> <SMILES>
CCc1cc(OC2CCN(C)CC2)c2n(cc(CN(C)C)c2c1)C(=O)c1ccccc1

$$$$

  CDD

  0  0  0  0  0  0            999 V2000
M  END
> <Molecule Name>
CVD-0000796

> <SMILES>
CCc1cc(OC2CCCCC2)c2cncc(CN(C)C)c2c1

$$$$

  CDD

  0  0  0  0  0  0            999 V2000
M  END
> <Molecule Name>
CVD-0000795

> <SMILES>
CCc1cc(OC2CCCCCC2)c2[nH]cc(CN(C)C)c2c1

$$$$

  CDD

  0  0  0  0  0  0            999 V2000
M  END
> <Molecule Name>
CVD-0000794

> <SMILES>
CCc1cc(NC2CCCCC2)c2n(cc(CN(C)C)c2c1)C(C)=O

$$$$

  CDD

  0  0  0  0  0  0            999 V2000
M  END
> <Molecule Name>
CVD-0000793

> <SMILES>
CCc1cc(OC2CCCCC2)c2n(cc(CN(C)C)c2c1)C1CCCCC1

$$$$

  CDD

  0  0  0  0  0  0            999 V2000
M  END
> <Molecule Name>
CVD-0000792

> <SMILES>
CCc1cc(OC2CCCCC2)c2n(cc(CN(C)C)c2c1)C(=O)C1=CC=CC1

$$$$

  CDD

  0  0  0  0  0  0            999 V2000
M  END
> <Molecule Name>
CVD-0000791

> <SMILES>
CCc1cc(OC2CCCCC2)c2n(Cc3ccccc3)cc(CN(C)C)c2c1

$$$$

  CDD

  0  0  0  0  0  0            999 V2000
M  END
> <Molecule Name>
CVD-0000790

> <SMILES>
CCc1cc(OC2CCCCC2)c2n(CC3CCCCC3)cc(CN(C)C)c2c1

$$$$

  CDD

  0  0  0  0  0  0            999 V2000
M  END
> <Molecule Name>
CVD-0000789

> <SMILES>
CCc1cc(N2CCCCCC2)c2n(Cc3ccccc3)cc(CN(C)C)c2c1

$$$$

  CDD

  0  0  0  0  0  0            999 V2000
M  END
> <Molecule Name>
CVD-0000788

> <SMILES>
CCc1cc(OC2CCCCC2)c2n(cc(CN(C)C)c2c1)C(=O)c1ccccc1

$$$$

  CDD

  0  0  0  0  0  0            999 V2000
M  END
> <Molecule Name>
CVD-0000787

> <SMILES>
CCc1cc(C2CCCCCC2)c2n(cc(CN(C)C)c2c1)C(=O)c1ccccc1

$$$$

  CDD

  0  0  0  0  0  0            999 V2000
M  END
> <Molecule Name>
CVD-0000786

> <SMILES>
CCc1cc(OC2CCCCC2)c2n(cc(CN(C)C)c2c1)S(=O)(=O)N1CCCCC1

$$$$

  CDD

  0  0  0  0  0  0            999 V2000
M  END
> <Molecule Name>
CVD-0000785

> <SMILES>
COc1cc([C@@H]2CN(Cc3ccccc23)C(=O)CCl)c2ccccc2c1

$$$$

  CDD

  0  0  0  0  0  0            999 V2000
M  END
> <Molecule Name>
CVD-0000784

> <SMILES>
ClCC(=O)N1C[C@H](c2ccccc2C1)c1cc(Cl)cc2ccccc12

$$$$

  CDD

  0  0  0  0  0  0            999 V2000
M  END
> <Molecule Name>
CVD-0000783

> <SMILES>
Fc1cc([C@@H]2CN(Cc3ccccc23)C(=O)CCl)c2ccccc2c1

$$$$

  CDD

  0  0  0  0  0  0            999 V2000
M  END
> <Molecule Name>
CVD-0000782

> <SMILES>
CC(=O)NCCc1c[nH]c2c(cc(F)cc12)[C@@H]1CN(Cc2ccccc12)C(=O)CCl

$$$$

  CDD

  0  0  0  0  0  0            999 V2000
M  END
> <Molecule Name>
CVD-0000781

> <SMILES>
CC(=O)NCCc1c[nH]c2c(cc(Cl)cc12)[C@@H]1CN(Cc2ccccc12)C(=O)CCl

$$$$

  CDD

  0  0  0  0  0  0            999 V2000
M  END
> <Molecule Name>
CVD-0000780

> <SMILES>
COc1cc([C@@H]2CN(Cc3ccccc23)C(=O)CCl)c2[nH]cc(CCNC(C)=O)c2c1

$$$$

  CDD

  0  0  0  0  0  0            999 V2000
M  END
> <Molecule Name>
CVD-0000779

> <SMILES>
COc1cc([C@@H]2CN(Cc3ccccc23)C(=O)CCl)c2[nH]ccc2c1

$$$$

  CDD

  0  0  0  0  0  0            999 V2000
M  END
> <Molecule Name>
CVD-0000778

> <SMILES>
COc1cccc(c1)[C@@H]1CN(Cc2ccccc12)C(=O)CCl

$$$$

  CDD

  0  0  0  0  0  0            999 V2000
M  END
> <Molecule Name>
CVD-0000777

> <SMILES>
Fc1cnc(CNC(=O)N2CCOCC2)c(c1)[C@@H]1CN(Cc2ccccc12)C(=O)CCl

$$$$

  CDD

  0  0  0  0  0  0            999 V2000
M  END
> <Molecule Name>
CVD-0000776

> <SMILES>
ClCC(=O)N1C[C@H](c2ccccc2C1)c1cc(cnc1CNC(=O)N1CCOCC1)C#N

$$$$

  CDD

  0  0  0  0  0  0            999 V2000
M  END
> <Molecule Name>
CVD-0000775

> <SMILES>
COc1cc([C@@H]2CN(Cc3ccccc23)C(=O)CCl)c2ccc(CCNC(C)=O)cc2c1

$$$$

  CDD

  0  0  0  0  0  0            999 V2000
M  END
> <Molecule Name>
CVD-0000774

> <SMILES>
COc1cc([C@@H]2CN(Cc3ccccc23)C(=O)CCl)c2ccc(cc2c1)S(N)(=O)=O

$$$$

  CDD

  0  0  0  0  0  0            999 V2000
M  END
> <Molecule Name>
CVD-0000773

> <SMILES>
Fc1cccc(c1)[C@@H]1CN(Cc2ccccc12)C(=O)CCl

$$$$

  CDD

  0  0  0  0  0  0            999 V2000
M  END
> <Molecule Name>
CVD-0000772

> <SMILES>
CNCCN1CC(CC(F)=C1)C1(CC1)c1ncc(C)s1

$$$$

  CDD

  0  0  0  0  0  0            999 V2000
M  END
> <Molecule Name>
CVD-0000771

> <SMILES>
CCc1cnc(s1)C1(CC1)C1CN(CCNC)C=C(F)C1

$$$$

  CDD

  0  0  0  0  0  0            999 V2000
M  END
> <Molecule Name>
CVD-0000770

> <SMILES>
CCc1ccc(s1)C1(CC1)C1CN(CCNC)C=C(F)C1

$$$$

  CDD

  0  0  0  0  0  0            999 V2000
M  END
> <Molecule Name>
CVD-0000769

> <SMILES>
CCC1=CN(CCNC)CC(C1)C1(CC1)c1ccc(Cl)cn1

$$$$

  CDD

  0  0  0  0  0  0            999 V2000
M  END
> <Molecule Name>
CVD-0000768

> <SMILES>
COC1=CN(CCN(C)C)CC(C1)C1(CC1)c1ccc(Cl)cc1

$$$$

  CDD

  0  0  0  0  0  0            999 V2000
M  END
> <Molecule Name>
CVD-0000767

> <SMILES>
CNCCN1CC(CC(F)=C1)C1(CC1)c1ccc(Cl)cn1

$$$$

  CDD

  0  0  0  0  0  0            999 V2000
M  END
> <Molecule Name>
CVD-0000766

> <SMILES>
CNCCN1CC(CC(F)=C1)C1(CC1)c1ccc(Cl)cc1

$$$$

  CDD

  0  0  0  0  0  0            999 V2000
M  END
> <Molecule Name>
CVD-0000765

> <SMILES>
CNCCN1CC(CC(F)=C1)C1(CC1)c1ccc(C)cc1

$$$$

  CDD

  0  0  0  0  0  0            999 V2000
M  END
> <Molecule Name>
CVD-0000764

> <SMILES>
COC1=CN(CCN(C)C)CC(C1)C1(CC1)c1ccccc1

$$$$

  CDD

  0  0  0  0  0  0            999 V2000
M  END
> <Molecule Name>
CVD-0000763

> <SMILES>
CCC1=CN(CCN(C)C)CC(C1)C1(CC1)c1ccc(Cl)cn1

$$$$

  CDD

  0  0  0  0  0  0            999 V2000
M  END
> <Molecule Name>
CVD-0000762

> <SMILES>
O=C(Nc1ccc(o1)C#N)Nc1cccnc1

$$$$

  CDD

  0  0  0  0  0  0            999 V2000
M  END
> <Molecule Name>
CVD-0000761

> <SMILES>
Clc1coc(NC(=O)Nc2cccnc2)n1

$$$$

  CDD

  0  0  0  0  0  0            999 V2000
M  END
> <Molecule Name>
CVD-0000760

> <SMILES>
Cc1coc(NC(=O)Nc2cccnc2)n1

$$$$

  CDD

  0  0  0  0  0  0            999 V2000
M  END
> <Molecule Name>
CVD-0000759

> <SMILES>
O=C(Nc1nc(co1)C#N)Nc1cccnc1

$$$$

  CDD

  0  0  0  0  0  0            999 V2000
M  END
> <Molecule Name>
CVD-0000758

> <SMILES>
O=C(Nc1ccc(s1)C#N)Nc1cccnc1

$$$$

  CDD

  0  0  0  0  0  0            999 V2000
M  END
> <Molecule Name>
CVD-0000757

> <SMILES>
Clc1ccc(NC(=O)Nc2cccnc2)s1

$$$$

  CDD

  0  0  0  0  0  0            999 V2000
M  END
> <Molecule Name>
CVD-0000756

> <SMILES>
Cc1ccc(NC(=O)Nc2cccnc2)s1

$$$$

  CDD

  0  0  0  0  0  0            999 V2000
M  END
> <Molecule Name>
CVD-0000755

> <SMILES>
O=C(Cc1cc2cccnc2[nH]1)Nc1ccsc1

$$$$

  CDD

  0  0  0  0  0  0            999 V2000
M  END
> <Molecule Name>
CVD-0000754

> <SMILES>
Cn1cc(NC(=O)Cc2cc3cccnc3[nH]2)cn1

$$$$

  CDD

  0  0  0  0  0  0            999 V2000
M  END
> <Molecule Name>
CVD-0000753

> <SMILES>
Clc1cnc(NC(=O)Cc2cc3cccnc3[nH]2)o1

$$$$

  CDD

  0  0  0  0  0  0            999 V2000
M  END
> <Molecule Name>
CVD-0000752

> <SMILES>
Cc1cnc(NC(=O)Cc2cc3cccnc3[nH]2)o1

$$$$

  CDD

  0  0  0  0  0  0            999 V2000
M  END
> <Molecule Name>
CVD-0000751

> <SMILES>
O=C(Cc1cc2cccnc2[nH]1)Nc1ncc(o1)C#N

$$$$

  CDD

  0  0  0  0  0  0            999 V2000
M  END
> <Molecule Name>
CVD-0000750

> <SMILES>
Cn1cc(NC(=O)Nc2cccnc2)cn1

$$$$

  CDD

  0  0  0  0  0  0            999 V2000
M  END
> <Molecule Name>
CVD-0000749

> <SMILES>
O=C(Cc1cc2cccnc2[nH]1)Nc1ccc(s1)C#N

$$$$

  CDD

  0  0  0  0  0  0            999 V2000
M  END
> <Molecule Name>
CVD-0000748

> <SMILES>
Cc1ccc(NC(=O)Cc2cc3cccnc3[nH]2)s1

$$$$

  CDD

  0  0  0  0  0  0            999 V2000
M  END
> <Molecule Name>
CVD-0000747

> <SMILES>
Clc1ccc(NC(=O)Cc2cc3cccnc3[nH]2)s1

$$$$

  CDD

  0  0  0  0  0  0            999 V2000
M  END
> <Molecule Name>
CVD-0000746

> <SMILES>
Cc1cnc(CC(=O)Nc2cccnc2)o1

$$$$

  CDD

  0  0  0  0  0  0            999 V2000
M  END
> <Molecule Name>
CVD-0000745

> <SMILES>
O=C(Cc1ncc(o1)C#N)Nc1cccnc1

$$$$

  CDD

  0  0  0  0  0  0            999 V2000
M  END
> <Molecule Name>
CVD-0000744

> <SMILES>
O=C(Cc1ccc(s1)C#N)Nc1cccnc1

$$$$

  CDD

  0  0  0  0  0  0            999 V2000
M  END
> <Molecule Name>
CVD-0000743

> <SMILES>
Clc1ccc(CC(=O)Nc2cccnc2)s1

$$$$

  CDD

  0  0  0  0  0  0            999 V2000
M  END
> <Molecule Name>
CVD-0000742

> <SMILES>
Cc1ccc(CC(=O)Nc2cccnc2)s1

$$$$

  CDD

  0  0  0  0  0  0            999 V2000
M  END
> <Molecule Name>
CVD-0000741

> <SMILES>
Cn1cc(CC(=O)Nc2cccnc2)cn1

$$$$

  CDD

  0  0  0  0  0  0            999 V2000
M  END
> <Molecule Name>
CVD-0000740

> <SMILES>
O=C(Cc1ccsc1)Nc1cccnc1

$$$$

  CDD

  0  0  0  0  0  0            999 V2000
M  END
> <Molecule Name>
CVD-0000739

> <SMILES>
O=C(Nc1ccsc1)Nc1cccnc1

$$$$

  CDD

  0  0  0  0  0  0            999 V2000
M  END
> <Molecule Name>
CVD-0000738

> <SMILES>
NC(=O)[C@H]1CC(Cc2cnco2)=C[C@H]1c1cccc(Cl)c1

$$$$

  CDD

  0  0  0  0  0  0            999 V2000
M  END
> <Molecule Name>
CVD-0000737

> <SMILES>
NC(=O)[C@H]1CC(Cc2cncs2)=C[C@H]1c1cccc(Cl)c1

$$$$

  CDD

  0  0  0  0  0  0            999 V2000
M  END
> <Molecule Name>
CVD-0000736

> <SMILES>
NC(=O)[C@H]1CC(Cc2ccccc2)=C[C@H]1c1cccc(Cl)c1

$$$$

  CDD

  0  0  0  0  0  0            999 V2000
M  END
> <Molecule Name>
CVD-0000735

> <SMILES>
NC(=O)[C@@H]1[C@@H](O)C(Cc2cccnc2)=C[C@@H]1c1cccc(Cl)c1

$$$$

  CDD

  0  0  0  0  0  0            999 V2000
M  END
> <Molecule Name>
CVD-0000734

> <SMILES>
NC(=O)[C@H]1C(O)C(Cc2cccnc2)=C[C@H]1c1cccc(Cl)c1

$$$$

  CDD

  0  0  0  0  0  0            999 V2000
M  END
> <Molecule Name>
CVD-0000733

> <SMILES>
NC(=O)[C@H]1CC(Cc2cccnc2)=C[C@H]1c1cccc(c1)C(F)(F)F

$$$$

  CDD

  0  0  0  0  0  0            999 V2000
M  END
> <Molecule Name>
CVD-0000732

> <SMILES>
NC(=O)[C@H]1CC(Cc2cccnc2)=C[C@H]1c1cccc(I)c1

$$$$

  CDD

  0  0  0  0  0  0            999 V2000
M  END
> <Molecule Name>
CVD-0000731

> <SMILES>
NC(=O)[C@H]1CC(Cc2cccnc2)=C[C@H]1c1cccc(Br)c1

$$$$

  CDD

  0  0  0  0  0  0            999 V2000
M  END
> <Molecule Name>
CVD-0000730

> <SMILES>
CN1CCN(CCNC(=O)[C@H]2CC(Cc3cccnc3)=C[C@H]2c2cccc(Cl)c2)CC1

$$$$

  CDD

  0  0  0  0  0  0            999 V2000
M  END
> <Molecule Name>
CVD-0000729

> <SMILES>
Clc1cccc(c1)[C@@H]1C=C(Cc2cccnc2)C[C@@H]1C(=O)NCCN1CCOCC1

$$$$

  CDD

  0  0  0  0  0  0            999 V2000
M  END
> <Molecule Name>
CVD-0000728

> <SMILES>
Clc1cccc(c1)[C@@H]1C=C(Cc2cccnc2)C[C@@H]1C(=O)NCCN1CCCCC1

$$$$

  CDD

  0  0  0  0  0  0            999 V2000
M  END
> <Molecule Name>
CVD-0000727

> <SMILES>
CC(C)CCNC(=O)[C@H]1CC(Cc2cccnc2)=C[C@H]1c1cccc(Cl)c1

$$$$

  CDD

  0  0  0  0  0  0            999 V2000
M  END
> <Molecule Name>
CVD-0000726

> <SMILES>
NCCNC(=O)[C@H]1CC(Cc2cccnc2)=C[C@H]1c1cccc(Cl)c1

$$$$

  CDD

  0  0  0  0  0  0            999 V2000
M  END
> <Molecule Name>
CVD-0000725

> <SMILES>
NCCCCNC(=O)[C@H]1CC(Cc2cccnc2)=C[C@H]1c1cccc(Cl)c1

$$$$

  CDD

  0  0  0  0  0  0            999 V2000
M  END
> <Molecule Name>
CVD-0000724

> <SMILES>
Cn1cc(CC2=C[C@H]([C@H](C2)C(N)=O)c2cccc(Cl)c2)cn1

$$$$

  CDD

  0  0  0  0  0  0            999 V2000
M  END
> <Molecule Name>
CVD-0000723

> <SMILES>
NC(=O)[C@H]1CC(CC2CC2)=C[C@H]1c1cccc(Cl)c1

$$$$

  CDD

  0  0  0  0  0  0            999 V2000
M  END
> <Molecule Name>
CVD-0000722

> <SMILES>
NC(=O)[C@H]1CC(Cc2cccnc2)=C[C@H]1c1cccc(Cl)c1

$$$$

  CDD

  0  0  0  0  0  0            999 V2000
M  END
> <Molecule Name>
CVD-0000721

> <SMILES>
C\C=C(\CN1CCCc2ccc(cc12)S(N)(=O)=O)/C=C/CN(Cc1cc(C)on1)C(=O)NC1CC1

$$$$

  CDD

  0  0  0  0  0  0            999 V2000
M  END
> <Molecule Name>
CVD-0000720

> <SMILES>
Cc1cc(CN(C2CCC(CN3CCCc4ccc(cc34)S(N)(=O)=O)CC2)C(=O)NC2CC2)no1

$$$$

  CDD

  0  0  0  0  0  0            999 V2000
M  END
> <Molecule Name>
CVD-0000719

> <SMILES>
CN(CCCN(Cc1cc(C)on1)C(=O)NC1CC1)CN1CCCc2ccc(cc12)S(N)(=O)=O

$$$$

  CDD

  0  0  0  0  0  0            999 V2000
M  END
> <Molecule Name>
CVD-0000718

> <SMILES>
Nc1cncc(NC(=O)Nc2cncc(c2)C#N)c1

$$$$

  CDD

  0  0  0  0  0  0            999 V2000
M  END
> <Molecule Name>
CVD-0000717

> <SMILES>
Nc1cncc(NC(=O)Nc2cccc(c2)C#N)c1

$$$$

  CDD

  0  0  0  0  0  0            999 V2000
M  END
> <Molecule Name>
CVD-0000716

> <SMILES>
Nc1cncc(CC(=O)Nc2cncc(c2)C#N)c1

$$$$

  CDD

  0  0  0  0  0  0            999 V2000
M  END
> <Molecule Name>
CVD-0000715

> <SMILES>
O=C(Cc1cccnc1)Nc1cncc(c1)C#N

$$$$

  CDD

  0  0  0  0  0  0            999 V2000
M  END
> <Molecule Name>
CVD-0000714

> <SMILES>
O=C(Cc1cccnc1)Nc1cccc(c1)C#N

$$$$

  CDD

  0  0  0  0  0  0            999 V2000
M  END
> <Molecule Name>
CVD-0000713

> <SMILES>
Nc1cncc(CC(=O)Nc2cccc(c2)C#N)c1

$$$$

  CDD

  0  0  0  0  0  0            999 V2000
M  END
> <Molecule Name>
CVD-0000712

> <SMILES>
O=C(Cc1cncc2ccccc12)Nc1ccccc1

$$$$

  CDD

  0  0  0  0  0  0            999 V2000
M  END
> <Molecule Name>
CVD-0000711

> <SMILES>
O=C(Cc1c[nH]c2ncccc12)Nc1cncc(c1)C#N

$$$$

  CDD

  0  0  0  0  0  0            999 V2000
M  END
> <Molecule Name>
CVD-0000710

> <SMILES>
O=C(Cc1cncc2ccccc12)Nc1cccc(c1)C#N

$$$$

  CDD

  0  0  0  0  0  0            999 V2000
M  END
> <Molecule Name>
CVD-0000709

> <SMILES>
O=C(Cc1cncc2ncccc12)Nc1cccc(c1)C#N

$$$$

  CDD

  0  0  0  0  0  0            999 V2000
M  END
> <Molecule Name>
CVD-0000708

> <SMILES>
O=C(Cc1cncc(c1)C#N)Nc1cccnc1

$$$$

  CDD

  0  0  0  0  0  0            999 V2000
M  END
> <Molecule Name>
CVD-0000707

> <SMILES>
Clc1cncc(CC(=O)Nc2cccnc2)c1

$$$$

  CDD

  0  0  0  0  0  0            999 V2000
M  END
> <Molecule Name>
CVD-0000706

> <SMILES>
Clc1cncc(NC(=O)Nc2cccnc2)c1

$$$$

  CDD

  0  0  0  0  0  0            999 V2000
M  END
> <Molecule Name>
CVD-0000705

> <SMILES>
Clc1cccc(NC(=O)Nc2cccnc2)c1

$$$$

  CDD

  0  0  0  0  0  0            999 V2000
M  END
> <Molecule Name>
CVD-0000704

> <SMILES>
Nc1cncc(NC(=O)Nc2cccc(Cl)c2)c1

$$$$

  CDD

  0  0  0  0  0  0            999 V2000
M  END
> <Molecule Name>
CVD-0000703

> <SMILES>
Clc1cccc(NC(=O)Cc2c[nH]c3ncccc23)c1

$$$$

  CDD

  0  0  0  0  0  0            999 V2000
M  END
> <Molecule Name>
CVD-0000702

> <SMILES>
O=C(Nc1c[nH]c2ncccc12)Nc1cccc(c1)C#N

$$$$

  CDD

  0  0  0  0  0  0            999 V2000
M  END
> <Molecule Name>
CVD-0000701

> <SMILES>
O=C(Nc1c[nH]c2ncccc12)Nc1cncc(c1)C#N

$$$$

  CDD

  0  0  0  0  0  0            999 V2000
M  END
> <Molecule Name>
CVD-0000700

> <SMILES>
O=C(Cc1c[nH]c2ncccc12)Nc1cccc(c1)C#N

$$$$

  CDD

  0  0  0  0  0  0            999 V2000
M  END
> <Molecule Name>
CVD-0000699

> <SMILES>
O=C(Cc1ccccc1)Nc1cnccc1CCNC(=O)N1CCCCC1

$$$$

  CDD

  0  0  0  0  0  0            999 V2000
M  END
> <Molecule Name>
CVD-0000698

> <SMILES>
CN1CCN(CC1)C(=O)NCCc1ccncc1NC(=O)Cc1ccccc1

$$$$

  CDD

  0  0  0  0  0  0            999 V2000
M  END
> <Molecule Name>
CVD-0000697

> <SMILES>
O=C(Cc1ccccc1)Nc1cnccc1CCNC(=O)NC1CCCCC1

$$$$

  CDD

  0  0  0  0  0  0            999 V2000
M  END
> <Molecule Name>
CVD-0000696

> <SMILES>
CN1CCN(CC(=O)Nc2cnccc2CCNC(=O)NC2CCCCC2)CC1

$$$$

  CDD

  0  0  0  0  0  0            999 V2000
M  END
> <Molecule Name>
CVD-0000695

> <SMILES>
O=C(CC1CCCCC1)Nc1cnccc1CCNC(=O)NC1CCCCC1

$$$$

  CDD

  0  0  0  0  0  0            999 V2000
M  END
> <Molecule Name>
CVD-0000694

> <SMILES>
O=C(NCCc1ccncc1NC(=O)Nc1cccc(c1)C#N)NC1CCCCC1

$$$$

  CDD

  0  0  0  0  0  0            999 V2000
M  END
> <Molecule Name>
CVD-0000693

> <SMILES>
Clc1cccc(NC(=O)Nc2cnccc2CCNC(=O)NC2CCCCC2)c1

$$$$

  CDD

  0  0  0  0  0  0            999 V2000
M  END
> <Molecule Name>
CVD-0000692

> <SMILES>
O=C(Cc1cnccc1CCNC(=O)NC1CCCCC1)Nc1ccccc1

$$$$

  CDD

  0  0  0  0  0  0            999 V2000
M  END
> <Molecule Name>
CVD-0000691

> <SMILES>
NCCc1ccncc1CC(=O)Nc1ccccc1

$$$$

  CDD

  0  0  0  0  0  0            999 V2000
M  END
> <Molecule Name>
CVD-0000690

> <SMILES>
O=C(Cc1ccccc1)Nc1c[nH]c2nccc(NC(=O)C3CCCCC3)c12

$$$$

  CDD

  0  0  0  0  0  0            999 V2000
M  END
> <Molecule Name>
CVD-0000689

> <SMILES>
O=C(Cc1ccccc1)Nc1c[nH]c2nccc(NC(=O)NC3CCCCC3)c12

$$$$

  CDD

  0  0  0  0  0  0            999 V2000
M  END
> <Molecule Name>
CVD-0000688

> <SMILES>
CN1CCN(CC1)C(=O)Cc1c[nH]c2nccc(NC(=O)NC3CCCCC3)c12

$$$$

  CDD

  0  0  0  0  0  0            999 V2000
M  END
> <Molecule Name>
CVD-0000687

> <SMILES>
O=C(Nc1ccccc1)Nc1cnccc1CCNC(=O)N1CCCCC1

$$$$

  CDD

  0  0  0  0  0  0            999 V2000
M  END
> <Molecule Name>
CVD-0000686

> <SMILES>
O=C(Cc1ccccc1)Nc1cnccc1CCNC(=O)N1CCOCC1

$$$$

  CDD

  0  0  0  0  0  0            999 V2000
M  END
> <Molecule Name>
CVD-0000685

> <SMILES>
O=C(NCCc1ccncc1NC(=O)Nc1ccccc1)NC1CCCCC1

$$$$

  CDD

  0  0  0  0  0  0            999 V2000
M  END
> <Molecule Name>
CVD-0000684

> <SMILES>
Cc1ccncc1NC(=O)[C@H](CNS(C)(=O)=O)c1ccc(Cl)cc1

$$$$

  CDD

  0  0  0  0  0  0            999 V2000
M  END
> <Molecule Name>
CVD-0000683

> <SMILES>
CS(=O)(=O)NC[C@@H](C(=O)N1CCOc2ccncc12)c1ccc(F)cc1

$$$$

  CDD

  0  0  0  0  0  0            999 V2000
M  END
> <Molecule Name>
CVD-0000682

> <SMILES>
CS(=O)(=O)NC[C@@H](C(=O)N1CCCc2ccncc12)c1ccc(F)cc1

$$$$

  CDD

  0  0  0  0  0  0            999 V2000
M  END
> <Molecule Name>
CVD-0000681

> <SMILES>
CS(=O)(=O)NC[C@@H](C(=O)N1CCc2ccncc12)c1ccc(F)cc1

$$$$

  CDD

  0  0  0  0  0  0            999 V2000
M  END
> <Molecule Name>
CVD-0000680

> <SMILES>
Cc1ccncc1NC(=O)[C@H](CNS(C)(=O)=O)c1ccc(F)cc1

$$$$

  CDD

  0  0  0  0  0  0            999 V2000
M  END
> <Molecule Name>
CVD-0000679

> <SMILES>
CS(=O)(=O)NC[C@@H](C(=O)N1CCOc2ccncc12)c1ccccc1

$$$$

  CDD

  0  0  0  0  0  0            999 V2000
M  END
> <Molecule Name>
CVD-0000678

> <SMILES>
CS(=O)(=O)NC[C@@H](C(=O)N1CCCc2ccncc12)c1ccccc1

$$$$

  CDD

  0  0  0  0  0  0            999 V2000
M  END
> <Molecule Name>
CVD-0000677

> <SMILES>
CS(=O)(=O)NC[C@@H](C(=O)N1CCOc2ccncc12)c1cccs1

$$$$

  CDD

  0  0  0  0  0  0            999 V2000
M  END
> <Molecule Name>
CVD-0000676

> <SMILES>
CS(=O)(=O)NC[C@@H](C(=O)N1CCc2ccncc12)c1ccccc1

$$$$

  CDD

  0  0  0  0  0  0            999 V2000
M  END
> <Molecule Name>
CVD-0000675

> <SMILES>
CS(=O)(=O)NC[C@@H](C(=O)N1CCCc2ccncc12)c1cccs1

$$$$

  CDD

  0  0  0  0  0  0            999 V2000
M  END
> <Molecule Name>
CVD-0000674

> <SMILES>
CS(=O)(=O)NC[C@@H](C(=O)N1CCc2ccncc12)c1cccs1

$$$$

  CDD

  0  0  0  0  0  0            999 V2000
M  END
> <Molecule Name>
CVD-0000673

> <SMILES>
Cc1ccncc1NC(=O)[C@H](CNS(C)(=O)=O)c1cccs1

$$$$

  CDD

  0  0  0  0  0  0            999 V2000
M  END
> <Molecule Name>
CVD-0000672

> <SMILES>
COc1ccc(cc1)[C@@H](CNS(C)(=O)=O)C(=O)N1CCOc2ccncc12

$$$$

  CDD

  0  0  0  0  0  0            999 V2000
M  END
> <Molecule Name>
CVD-0000671

> <SMILES>
COc1ccc(cc1)[C@@H](CNS(C)(=O)=O)C(=O)N1CCCc2ccncc12

$$$$

  CDD

  0  0  0  0  0  0            999 V2000
M  END
> <Molecule Name>
CVD-0000670

> <SMILES>
COc1ccc(cc1)[C@@H](CNS(C)(=O)=O)C(=O)N1CCc2ccncc12

$$$$

  CDD

  0  0  0  0  0  0            999 V2000
M  END
> <Molecule Name>
CVD-0000669

> <SMILES>
COc1ccc(cc1)[C@@H](CNS(C)(=O)=O)C(=O)Nc1cnccc1C

$$$$

  CDD

  0  0  0  0  0  0            999 V2000
M  END
> <Molecule Name>
CVD-0000668

> <SMILES>
CS(=O)(=O)NC[C@@H](C(=O)N1CCOc2ccncc12)c1ccc(Cl)cc1

$$$$

  CDD

  0  0  0  0  0  0            999 V2000
M  END
> <Molecule Name>
CVD-0000667

> <SMILES>
CS(=O)(=O)NC[C@@H](C(=O)N1CCCc2ccncc12)c1ccc(Cl)cc1

$$$$

  CDD

  0  0  0  0  0  0            999 V2000
M  END
> <Molecule Name>
CVD-0000666

> <SMILES>
CS(=O)(=O)NC[C@@H](C(=O)N1CCc2ccncc12)c1ccc(Cl)cc1

$$$$

  CDD

  0  0  0  0  0  0            999 V2000
M  END
> <Molecule Name>
CVD-0000665

> <SMILES>
Cc1ccncc1NC(=O)[C@H](CNS(C)(=O)=O)c1ccccc1

$$$$

  CDD

  0  0  0  0  0  0            999 V2000
M  END
> <Molecule Name>
CVD-0000664

> <SMILES>
NC(=O)CCN(C1CCS(=O)(=O)C1)C(=O)CCl

$$$$

  CDD

  0  0  0  0  0  0            999 V2000
M  END
> <Molecule Name>
CVD-0000663

> <SMILES>
NC(=N)CCN(C1CCS(=O)(=O)C1)C(=O)CCl

$$$$

  CDD

  0  0  0  0  0  0            999 V2000
M  END
> <Molecule Name>
CVD-0000662

> <SMILES>
ClCC(=O)N(C1CCS(=O)(=O)C1)c1cccnc1

$$$$

  CDD

  0  0  0  0  0  0            999 V2000
M  END
> <Molecule Name>
CVD-0000661

> <SMILES>
CC(=O)[C@@H]1CN(C[C@H](CC(N)=O)N1C(C)=O)C(=O)CCl

$$$$

  CDD

  0  0  0  0  0  0            999 V2000
M  END
> <Molecule Name>
CVD-0000660

> <SMILES>
CC(=O)N1CCN(C[C@@H]1CC(N)=O)C(=O)CCl

$$$$

  CDD

  0  0  0  0  0  0            999 V2000
M  END
> <Molecule Name>
CVD-0000659

> <SMILES>
CC(=O)N(C(=O)CCl)c1cncc(N)c1

$$$$

  CDD

  0  0  0  0  0  0            999 V2000
M  END
> <Molecule Name>
CVD-0000658

> <SMILES>
CC(=O)Nc1cncc(N)c1

$$$$

  CDD

  0  0  0  0  0  0            999 V2000
M  END
> <Molecule Name>
CVD-0000657

> <SMILES>
CC(=O)C(=O)N1CCN(CC1)S(=O)(=O)c1cccc(F)c1

$$$$

  CDD

  0  0  0  0  0  0            999 V2000
M  END
> <Molecule Name>
CVD-0000656

> <SMILES>
FCC(=O)N1CCN(CC1)S(=O)(=O)c1cccc(F)c1

$$$$

  CDD

  0  0  0  0  0  0            999 V2000
M  END
> <Molecule Name>
CVD-0000655

> <SMILES>
ClCC(=O)N1CCN(Cc2cccc(Cl)c2)C(C1)c1cccs1

$$$$

  CDD

  0  0  0  0  0  0            999 V2000
M  END
> <Molecule Name>
CVD-0000654

> <SMILES>
ClCC(=O)N1CC2CC1CN2Cc1cccc(Cl)c1

$$$$

  CDD

  0  0  0  0  0  0            999 V2000
M  END
> <Molecule Name>
CVD-0000653

> <SMILES>
CC(C)(C)NC(=O)[C@@H]1CN(CCN1Cc1cccc(Cl)c1)C(=O)CCl

$$$$

  CDD

  0  0  0  0  0  0            999 V2000
M  END
> <Molecule Name>
CVD-0000652

> <SMILES>
ClCC(=O)N1CCN(Cc2cccc(Cl)c2)C(C1)c1ccc(Cl)cc1

$$$$

  CDD

  0  0  0  0  0  0            999 V2000
M  END
> <Molecule Name>
CVD-0000651

> <SMILES>
ClCC(=O)N1CCN(Cc2cccc(Cl)c2)CC1c1ccccc1

$$$$

  CDD

  0  0  0  0  0  0            999 V2000
M  END
> <Molecule Name>
CVD-0000650

> <SMILES>
CC(C)[C@@H]1CN(Cc2cccc(Cl)c2)CCN1C(=O)CCl

$$$$

  CDD

  0  0  0  0  0  0            999 V2000
M  END
> <Molecule Name>
CVD-0000649

> <SMILES>
CC(C)C[C@@H]1CN(CCN1Cc1cccc(Cl)c1)C(=O)CCl

$$$$

  CDD

  0  0  0  0  0  0            999 V2000
M  END
> <Molecule Name>
CVD-0000648

> <SMILES>
CC1(C)CN(CCN1Cc1cccc(Cl)c1)C(=O)CCl

$$$$

  CDD

  0  0  0  0  0  0            999 V2000
M  END
> <Molecule Name>
CVD-0000647

> <SMILES>
ClCC(=O)N1CCN(Cc2cccc(Cl)c2)C[C@@H]1Cc1ccccc1

$$$$

  CDD

  0  0  0  0  0  0            999 V2000
M  END
> <Molecule Name>
CVD-0000646

> <SMILES>
NC(=O)C1CN(CCN1Cc1cccc(Cl)c1)C(=O)CCl

$$$$

  CDD

  0  0  0  0  0  0            999 V2000
M  END
> <Molecule Name>
CVD-0000645

> <SMILES>
O=C(Cc1c[nH]c2ccccc12)Nc1ccccc1

$$$$

  CDD

  0  0  0  0  0  0            999 V2000
M  END
> <Molecule Name>
CVD-0000644

> <SMILES>
CC(CNC(=O)C(C)Cc1c[nH]c2ccccc12)Cc1ccccc1

$$$$

  CDD

  0  0  0  0  0  0            999 V2000
M  END
> <Molecule Name>
CVD-0000643

> <SMILES>
O=C(CC1CCCc2ccc(CN3CCC(=O)CC3)cc12)NC1CCCNC1

$$$$

  CDD

  0  0  0  0  0  0            999 V2000
M  END
> <Molecule Name>
CVD-0000642

> <SMILES>
O=C(CC1CCCC2=CC(CN3CCC(=O)CC3)CC12)NC1CCCNC1

$$$$

  CDD

  0  0  0  0  0  0            999 V2000
M  END
> <Molecule Name>
CVD-0000641

> <SMILES>
O=C(CC1CC(=O)Cc2ccc(CN3CCC(=O)CC3)cc12)NC1CCCC(=O)C1

$$$$

  CDD

  0  0  0  0  0  0            999 V2000
M  END
> <Molecule Name>
CVD-0000640

> <SMILES>
OC(=O)c1ccc(cc1)S(=O)(=O)N1CCCCC1

$$$$

  CDD

  0  0  0  0  0  0            999 V2000
M  END
> <Molecule Name>
CVD-0000639

> <SMILES>
NC(=O)C1CCN(CC1)C(=O)c1ccccc1O

$$$$

  CDD

  0  0  0  0  0  0            999 V2000
M  END
> <Molecule Name>
CVD-0000638

> <SMILES>
Oc1ccccc1C(=O)Nc1ccccc1

$$$$

  CDD

  0  0  0  0  0  0            999 V2000
M  END
> <Molecule Name>
CVD-0000637

> <SMILES>
Oc1ccccc1C(=O)N1CCCCC1

$$$$

  CDD

  0  0  0  0  0  0            999 V2000
M  END
> <Molecule Name>
CVD-0000636

> <SMILES>
CC(=O)N1CCN(Cc2[nH]c3cc(ccc3c(=O)c2Cl)S(N)(=O)=O)CC1

$$$$

  CDD

  0  0  0  0  0  0            999 V2000
M  END
> <Molecule Name>
CVD-0000635

> <SMILES>
Cc1ncc(s1)C1(CC(=O)Nc2cccnc2)CCCC1

$$$$

  CDD

  0  0  0  0  0  0            999 V2000
M  END
> <Molecule Name>
CVD-0000634

> <SMILES>
O=C(CC1(CCCC1)c1cccnc1)Nc1cccnc1

$$$$

  CDD

  0  0  0  0  0  0            999 V2000
M  END
> <Molecule Name>
CVD-0000633

> <SMILES>
O=C(CC1(CCCC1)c1ccccc1)Nc1cccnc1

$$$$

  CDD

  0  0  0  0  0  0            999 V2000
M  END
> <Molecule Name>
CVD-0000632

> <SMILES>
Cc1ncc(s1)C1(CC(=O)Nc2cccnc2)CCCCC1

$$$$

  CDD

  0  0  0  0  0  0            999 V2000
M  END
> <Molecule Name>
CVD-0000631

> <SMILES>
O=C(CC1(CCCCC1)c1cccnc1)Nc1cccnc1

$$$$

  CDD

  0  0  0  0  0  0            999 V2000
M  END
> <Molecule Name>
CVD-0000630

> <SMILES>
O=C(CC1(CCCCC1)c1ccccc1)Nc1cccnc1

$$$$

  CDD

  0  0  0  0  0  0            999 V2000
M  END
> <Molecule Name>
CVD-0000629

> <SMILES>
Cc1ccncc1NC(=O)CC1(CCC1)c1cccc(c1)S(N)(=O)=O

$$$$

  CDD

  0  0  0  0  0  0            999 V2000
M  END
> <Molecule Name>
CVD-0000628

> <SMILES>
Cc1ccncc1NC(=O)CC1(CCCC1)c1cccc(c1)S(N)(=O)=O

$$$$

  CDD

  0  0  0  0  0  0            999 V2000
M  END
> <Molecule Name>
CVD-0000627

> <SMILES>
Cc1ccncc1NC(=O)CC1(CCCCC1)c1cccc(c1)S(N)(=O)=O

$$$$

  CDD

  0  0  0  0  0  0            999 V2000
M  END
> <Molecule Name>
CVD-0000626

> <SMILES>
NS(=O)(=O)c1cccc(c1)C1(CC(=O)Nc2cccnc2)CCC1

$$$$

  CDD

  0  0  0  0  0  0            999 V2000
M  END
> <Molecule Name>
CVD-0000625

> <SMILES>
NS(=O)(=O)c1cccc(c1)C1(CC(=O)Nc2cccnc2)CCCC1

$$$$

  CDD

  0  0  0  0  0  0            999 V2000
M  END
> <Molecule Name>
CVD-0000624

> <SMILES>
NS(=O)(=O)c1cccc(c1)C1(CC(=O)Nc2cccnc2)CCCCC1

$$$$

  CDD

  0  0  0  0  0  0            999 V2000
M  END
> <Molecule Name>
CVD-0000623

> <SMILES>
O=C(CC1(CCCCC1)C#Cc1ccncn1)Nc1cccnc1

$$$$

  CDD

  0  0  0  0  0  0            999 V2000
M  END
> <Molecule Name>
CVD-0000622

> <SMILES>
O=C(CC1(CCCCC1)C#Cc1cccnn1)Nc1cccnc1

$$$$

  CDD

  0  0  0  0  0  0            999 V2000
M  END
> <Molecule Name>
CVD-0000621

> <SMILES>
O=C(CC1(CCCCC1)C#Cc1ccnnc1)Nc1cccnc1

$$$$

  CDD

  0  0  0  0  0  0            999 V2000
M  END
> <Molecule Name>
CVD-0000620

> <SMILES>
Cn1cnc(c1)C#CC1(CC(=O)Nc2cccnc2)CCCCC1

$$$$

  CDD

  0  0  0  0  0  0            999 V2000
M  END
> <Molecule Name>
CVD-0000619

> <SMILES>
O=C(CC1(CCCCC1)C#Cc1ccncc1)Nc1cccnc1

$$$$

  CDD

  0  0  0  0  0  0            999 V2000
M  END
> <Molecule Name>
CVD-0000618

> <SMILES>
O=C(CC1(CCCCC1)C#Cc1cccnc1)Nc1cccnc1

$$$$

  CDD

  0  0  0  0  0  0            999 V2000
M  END
> <Molecule Name>
CVD-0000617

> <SMILES>
O=C(CC1(CCCCC1)C#Cc1ccccn1)Nc1cccnc1

$$$$

  CDD

  0  0  0  0  0  0            999 V2000
M  END
> <Molecule Name>
CVD-0000616

> <SMILES>
O=C(CC1(CCC1)Oc1ccccc1)Nc1cccnc1

$$$$

  CDD

  0  0  0  0  0  0            999 V2000
M  END
> <Molecule Name>
CVD-0000615

> <SMILES>
NS(=O)(=O)c1cccc(OC2(CC(=O)Nc3cccnc3)CC2)c1

$$$$

  CDD

  0  0  0  0  0  0            999 V2000
M  END
> <Molecule Name>
CVD-0000614

> <SMILES>
O=C(CC1(CC1)Oc1ccccc1)Nc1cccnc1

$$$$

  CDD

  0  0  0  0  0  0            999 V2000
M  END
> <Molecule Name>
CVD-0000613

> <SMILES>
CS(=O)(=O)c1ccc(OC2(CC(=O)Nc3cccnc3)CCCC2)cc1

$$$$

  CDD

  0  0  0  0  0  0            999 V2000
M  END
> <Molecule Name>
CVD-0000612

> <SMILES>
NS(=O)(=O)c1cccc(OC2(CC(=O)Nc3cccnc3)CCCC2)c1

$$$$

  CDD

  0  0  0  0  0  0            999 V2000
M  END
> <Molecule Name>
CVD-0000611

> <SMILES>
O=C(CC1(CCCC1)Oc1ccccc1)Nc1cccnc1

$$$$

  CDD

  0  0  0  0  0  0            999 V2000
M  END
> <Molecule Name>
CVD-0000610

> <SMILES>
NS(=O)(=O)c1ccc(OC2(CC(=O)Nc3cccnc3)CCCCC2)cc1

$$$$

  CDD

  0  0  0  0  0  0            999 V2000
M  END
> <Molecule Name>
CVD-0000609

> <SMILES>
NS(=O)(=O)c1cccc(OC2(CC(=O)Nc3cccnc3)CCCCC2)c1

$$$$

  CDD

  0  0  0  0  0  0            999 V2000
M  END
> <Molecule Name>
CVD-0000608

> <SMILES>
NS(=O)(=O)c1ccc(OC2(CC(=O)Nc3cccnc3)CC2)cc1

$$$$

  CDD

  0  0  0  0  0  0            999 V2000
M  END
> <Molecule Name>
CVD-0000607

> <SMILES>
NS(=O)(=O)c1cccc(OC2(CC(=O)Nc3cccnc3)CCC2)c1

$$$$

  CDD

  0  0  0  0  0  0            999 V2000
M  END
> <Molecule Name>
CVD-0000606

> <SMILES>
O=C(CC1(CCCCC1)Oc1ccccc1)Nc1cccnc1

$$$$

  CDD

  0  0  0  0  0  0            999 V2000
M  END
> <Molecule Name>
CVD-0000605

> <SMILES>
O=C(Nc1ccccc1)c1ccccc1

$$$$

  CDD

  0  0  0  0  0  0            999 V2000
M  END
> <Molecule Name>
CVD-0000604

> <SMILES>
Clc1cccc(c1)C(=O)Nc1ccccc1

$$$$

  CDD

  0  0  0  0  0  0            999 V2000
M  END
> <Molecule Name>
CVD-0000603

> <SMILES>
Oc1ccc(Cl)cc1C(=O)Nc1ccccc1

$$$$

  CDD

  0  0  0  0  0  0            999 V2000
M  END
> <Molecule Name>
CVD-0000602

> <SMILES>
[O-][N+](=O)c1ccc(NC(=O)c2ccccc2)cc1

$$$$

  CDD

  0  0  0  0  0  0            999 V2000
M  END
> <Molecule Name>
CVD-0000601

> <SMILES>
Oc1ccccc1C(=O)Nc1ccc(cc1)[N+]([O-])=O

$$$$

  CDD

  0  0  0  0  0  0            999 V2000
M  END
> <Molecule Name>
CVD-0000600

> <SMILES>
Oc1ccc(Cl)cc1C(=O)Nc1ccccc1Cl

$$$$

  CDD

  0  0  0  0  0  0            999 V2000
M  END
> <Molecule Name>
CVD-0000599

> <SMILES>
Oc1ccc(Cl)cc1C(=O)Nc1ccc(cc1)[N+]([O-])=O

$$$$

  CDD

  0  0  0  0  0  0            999 V2000
M  END
> <Molecule Name>
CVD-0000598

> <SMILES>
NS(=O)(=O)c1cccc(Oc2cc(Cl)cc(c2)C(=O)Nc2cccnc2)c1

$$$$

  CDD

  0  0  0  0  0  0            999 V2000
M  END
> <Molecule Name>
CVD-0000597

> <SMILES>
Clc1cccc(c1)C(=O)Nc1cnccc1Cl

$$$$

  CDD

  0  0  0  0  0  0            999 V2000
M  END
> <Molecule Name>
CVD-0000596

> <SMILES>
[O-][N+](=O)c1ccc(NC(=O)c2cccc(Cl)c2)c(Cl)c1

$$$$

  CDD

  0  0  0  0  0  0            999 V2000
M  END
> <Molecule Name>
CVD-0000595

> <SMILES>
NS(=O)(=O)c1ccc(Oc2cc(Cl)cc(c2)C(=O)Nc2cccnc2)cc1

$$$$

  CDD

  0  0  0  0  0  0            999 V2000
M  END
> <Molecule Name>
CVD-0000594

> <SMILES>
Clc1cc(Oc2ccccc2)cc(c1)C(=O)Nc1cccnc1

$$$$

  CDD

  0  0  0  0  0  0            999 V2000
M  END
> <Molecule Name>
CVD-0000593

> <SMILES>
NS(=O)(=O)c1cccc(Oc2ccc(Cl)cc2C(=O)Nc2cccnc2)c1

$$$$

  CDD

  0  0  0  0  0  0            999 V2000
M  END
> <Molecule Name>
CVD-0000592

> <SMILES>
Clc1ccc(Oc2ccccc2)c(c1)C(=O)Nc1cccnc1

$$$$

  CDD

  0  0  0  0  0  0            999 V2000
M  END
> <Molecule Name>
CVD-0000591

> <SMILES>
NS(=O)(=O)c1ccc(cc1)-c1ccc(Cl)cc1C(=O)Nc1cccnc1

$$$$

  CDD

  0  0  0  0  0  0            999 V2000
M  END
> <Molecule Name>
CVD-0000590

> <SMILES>
Clc1ccc(-c2ccccc2)c(c1)C(=O)Nc1cccnc1

$$$$

  CDD

  0  0  0  0  0  0            999 V2000
M  END
> <Molecule Name>
CVD-0000589

> <SMILES>
Oc1c(cc(Cl)cc1-c1ccccc1)C(=O)Nc1cccnc1

$$$$

  CDD

  0  0  0  0  0  0            999 V2000
M  END
> <Molecule Name>
CVD-0000588

> <SMILES>
Clc1cccc(c1)C(=O)Nc1cccnc1

$$$$

  CDD

  0  0  0  0  0  0            999 V2000
M  END
> <Molecule Name>
CVD-0000587

> <SMILES>
Oc1ccc(Cl)cc1C(=O)Nc1cccnc1

$$$$

  CDD

  0  0  0  0  0  0            999 V2000
M  END
> <Molecule Name>
CVD-0000586

> <SMILES>
Oc1ccc(Cl)cc1C(=O)Nc1cnccc1Cl

$$$$

  CDD

  0  0  0  0  0  0            999 V2000
M  END
> <Molecule Name>
CVD-0000585

> <SMILES>
Oc1ccc(Cl)cc1C(=O)Nc1ccc(cc1Cl)[N+]([O-])=O

$$$$

  CDD

  0  0  0  0  0  0            999 V2000
M  END
> <Molecule Name>
CVD-0000584

> <SMILES>
Cc1ccncc1NC(=O)NC1(CCC1)C#Cc1cncnc1

$$$$

  CDD

  0  0  0  0  0  0            999 V2000
M  END
> <Molecule Name>
CVD-0000583

> <SMILES>
Cc1ccncc1NC(=O)NC1(CCC1)C#Cc1cccnc1

$$$$

  CDD

  0  0  0  0  0  0            999 V2000
M  END
> <Molecule Name>
CVD-0000582

> <SMILES>
Cc1ccncc1NC(=O)NC1(CCC1)C#Cc1ccccn1

$$$$

  CDD

  0  0  0  0  0  0            999 V2000
M  END
> <Molecule Name>
CVD-0000581

> <SMILES>
Cc1ccncc1NC(=O)NC1(CCCC1)C#Cc1cncnc1

$$$$

  CDD

  0  0  0  0  0  0            999 V2000
M  END
> <Molecule Name>
CVD-0000580

> <SMILES>
Cc1ccncc1NC(=O)NC1(CCCC1)C#Cc1cccnc1

$$$$

  CDD

  0  0  0  0  0  0            999 V2000
M  END
> <Molecule Name>
CVD-0000579

> <SMILES>
Cc1ccncc1NC(=O)NC1(CCCC1)C#Cc1ccccn1

$$$$

  CDD

  0  0  0  0  0  0            999 V2000
M  END
> <Molecule Name>
CVD-0000578

> <SMILES>
Cc1ccncc1NC(=O)NC1(CCCCC1)C#Cc1cncnc1

$$$$

  CDD

  0  0  0  0  0  0            999 V2000
M  END
> <Molecule Name>
CVD-0000577

> <SMILES>
Cc1ccncc1NC(=O)NC1(CCCCC1)C#Cc1cccnc1

$$$$

  CDD

  0  0  0  0  0  0            999 V2000
M  END
> <Molecule Name>
CVD-0000576

> <SMILES>
Cc1ccncc1NC(=O)NC1(CC1)C#Cc1cn(C)cn1

$$$$

  CDD

  0  0  0  0  0  0            999 V2000
M  END
> <Molecule Name>
CVD-0000575

> <SMILES>
Cc1ccncc1NC(=O)NC1(CCC1)C#Cc1cn(C)cn1

$$$$

  CDD

  0  0  0  0  0  0            999 V2000
M  END
> <Molecule Name>
CVD-0000574

> <SMILES>
Cc1ccncc1NC(=O)NC1(CCCC1)C#Cc1cn(C)cn1

$$$$

  CDD

  0  0  0  0  0  0            999 V2000
M  END
> <Molecule Name>
CVD-0000573

> <SMILES>
Cc1ccncc1NC(=O)NC1(CCCCC1)C#Cc1cn(C)cn1

$$$$

  CDD

  0  0  0  0  0  0            999 V2000
M  END
> <Molecule Name>
CVD-0000572

> <SMILES>
Cc1ccncc1NC(=O)NC1(CC1)C#Cc1cncnc1

$$$$

  CDD

  0  0  0  0  0  0            999 V2000
M  END
> <Molecule Name>
CVD-0000571

> <SMILES>
Cc1ccncc1NC(=O)NC1(CC1)C#Cc1cccnc1

$$$$

  CDD

  0  0  0  0  0  0            999 V2000
M  END
> <Molecule Name>
CVD-0000570

> <SMILES>
Cc1ccncc1NC(=O)NC1(CC1)C#Cc1ccccn1

$$$$

  CDD

  0  0  0  0  0  0            999 V2000
M  END
> <Molecule Name>
CVD-0000569

> <SMILES>
Cc1ccncc1NC(=O)NC1(CCCCC1)C#Cc1ccccn1

$$$$

  CDD

  0  0  0  0  0  0            999 V2000
M  END
> <Molecule Name>
CVD-0000568

> <SMILES>
O=C(CC1(Cc2cccnc2)CCCCC1)Nc1cccnc1

$$$$

  CDD

  0  0  0  0  0  0            999 V2000
M  END
> <Molecule Name>
CVD-0000567

> <SMILES>
O=C(CC1(Cc2ccccc2)CCCCC1)Nc1cccnc1

$$$$

  CDD

  0  0  0  0  0  0            999 V2000
M  END
> <Molecule Name>
CVD-0000566

> <SMILES>
Cc1ncc(CC2(CC(=O)Nc3cccnc3)CCCCC2)s1

$$$$

  CDD

  0  0  0  0  0  0            999 V2000
M  END
> <Molecule Name>
CVD-0000565

> <SMILES>
Cc1ncc(CC2(CC(=O)Nc3cccnc3)CCCC2)s1

$$$$

  CDD

  0  0  0  0  0  0            999 V2000
M  END
> <Molecule Name>
CVD-0000564

> <SMILES>
O=C(CC1(Cc2cccnc2)CCCC1)Nc1cccnc1

$$$$

  CDD

  0  0  0  0  0  0            999 V2000
M  END
> <Molecule Name>
CVD-0000563

> <SMILES>
O=C(CC1(Cc2ccccc2)CCCC1)Nc1cccnc1

$$$$

  CDD

  0  0  0  0  0  0            999 V2000
M  END
> <Molecule Name>
CVD-0000562

> <SMILES>
Cc1cc(n[nH]1)C#CC1(CC(=O)Nc2cccnc2)CCCCC1

$$$$

  CDD

  0  0  0  0  0  0            999 V2000
M  END
> <Molecule Name>
CVD-0000561

> <SMILES>
O=C(CC1(CCCCC1)C#Cc1cc[nH]n1)Nc1cccnc1

$$$$

  CDD

  0  0  0  0  0  0            999 V2000
M  END
> <Molecule Name>
CVD-0000560

> <SMILES>
O=C(CC1(CCCCC1)C#Cc1c[nH]cn1)Nc1cccnc1

$$$$

  CDD

  0  0  0  0  0  0            999 V2000
M  END
> <Molecule Name>
CVD-0000559

> <SMILES>
Nc1nccc(n1)C#CC1(CC(=O)Nc2cccnc2)CCCCC1

$$$$

  CDD

  0  0  0  0  0  0            999 V2000
M  END
> <Molecule Name>
CVD-0000558

> <SMILES>
O=C(CC1(CCCCC1)C#CC1CCCCN1)Nc1cccnc1

$$$$

  CDD

  0  0  0  0  0  0            999 V2000
M  END
> <Molecule Name>
CVD-0000557

> <SMILES>
O=C(CC1(CCCCC1)C#CC1CCCNC1)Nc1cccnc1

$$$$

  CDD

  0  0  0  0  0  0            999 V2000
M  END
> <Molecule Name>
CVD-0000556

> <SMILES>
O=C(CC1(CCCCC1)C#CC1CCCN1)Nc1cccnc1

$$$$

  CDD

  0  0  0  0  0  0            999 V2000
M  END
> <Molecule Name>
CVD-0000555

> <SMILES>
O=C(CC1(CCCCC1)C#CC1CCNC1)Nc1cccnc1

$$$$

  CDD

  0  0  0  0  0  0            999 V2000
M  END
> <Molecule Name>
CVD-0000554

> <SMILES>
Cc1ccncc1NC(=O)Nc1cncc(C#N)c1Oc1ccc(cc1)S(N)(=O)=O

$$$$

  CDD

  0  0  0  0  0  0            999 V2000
M  END
> <Molecule Name>
CVD-0000553

> <SMILES>
Cc1ccncc1NC(=O)Nc1cncc(C#N)c1Oc1ccccc1

$$$$

  CDD

  0  0  0  0  0  0            999 V2000
M  END
> <Molecule Name>
CVD-0000552

> <SMILES>
Cc1ccncc1NC(=O)Nc1cncc(C#N)c1Oc1cccc(c1)S(N)(=O)=O

$$$$

  CDD

  0  0  0  0  0  0            999 V2000
M  END
> <Molecule Name>
CVD-0000551

> <SMILES>
NS(=O)(=O)c1cccc(Oc2c(NC(=O)Nc3cccnc3)cncc2C#N)c1

$$$$

  CDD

  0  0  0  0  0  0            999 V2000
M  END
> <Molecule Name>
CVD-0000550

> <SMILES>
NS(=O)(=O)c1ccc(Oc2c(NC(=O)Nc3cccnc3)cncc2C#N)cc1

$$$$

  CDD

  0  0  0  0  0  0            999 V2000
M  END
> <Molecule Name>
CVD-0000549

> <SMILES>
O=C(Nc1cccnc1)Nc1cncc(C#N)c1Oc1ccccc1

$$$$

  CDD

  0  0  0  0  0  0            999 V2000
M  END
> <Molecule Name>
CVD-0000548

> <SMILES>
Cc1ccncc1NC(=O)Nc1cncc(c1)C#N

$$$$

  CDD

  0  0  0  0  0  0            999 V2000
M  END
> <Molecule Name>
CVD-0000547

> <SMILES>
O=C(Nc1cccnc1)Nc1cncc(c1)C#N

$$$$

  CDD

  0  0  0  0  0  0            999 V2000
M  END
> <Molecule Name>
CVD-0000546

> <SMILES>
Cc1ccncc1NC(=O)NC1(CCC1)Oc1ccc(cc1)S(N)(=O)=O

$$$$

  CDD

  0  0  0  0  0  0            999 V2000
M  END
> <Molecule Name>
CVD-0000545

> <SMILES>
Cc1ccncc1NC(=O)NC1(CCC1)Oc1cccc(c1)S(N)(=O)=O

$$$$

  CDD

  0  0  0  0  0  0            999 V2000
M  END
> <Molecule Name>
CVD-0000544

> <SMILES>
Cc1ccncc1NC(=O)NC1(CCC1)Oc1ccccc1

$$$$

  CDD

  0  0  0  0  0  0            999 V2000
M  END
> <Molecule Name>
CVD-0000543

> <SMILES>
Cc1ccncc1NC(=O)NC1(CCCC1)Oc1ccc(cc1)S(C)(=O)=O

$$$$

  CDD

  0  0  0  0  0  0            999 V2000
M  END
> <Molecule Name>
CVD-0000542

> <SMILES>
Cc1ccncc1NC(=O)NC1(CCCC1)Oc1cccc(c1)S(N)(=O)=O

$$$$

  CDD

  0  0  0  0  0  0            999 V2000
M  END
> <Molecule Name>
CVD-0000541

> <SMILES>
Cc1ccncc1NC(=O)NC1(CCCC1)Oc1ccccc1

$$$$

  CDD

  0  0  0  0  0  0            999 V2000
M  END
> <Molecule Name>
CVD-0000540

> <SMILES>
Cc1ccncc1NC(=O)NC1(CCCCC1)Oc1ccc(cc1)S(N)(=O)=O

$$$$

  CDD

  0  0  0  0  0  0            999 V2000
M  END
> <Molecule Name>
CVD-0000539

> <SMILES>
Cc1ccncc1NC(=O)NC1(CCCCC1)Oc1cccc(c1)S(N)(=O)=O

$$$$

  CDD

  0  0  0  0  0  0            999 V2000
M  END
> <Molecule Name>
CVD-0000538

> <SMILES>
Cc1ccncc1NC(=O)NC1(CC1)Oc1ccc(cc1)S(N)(=O)=O

$$$$

  CDD

  0  0  0  0  0  0            999 V2000
M  END
> <Molecule Name>
CVD-0000537

> <SMILES>
Cc1ccncc1NC(=O)NC1(CC1)Oc1cccc(c1)S(N)(=O)=O

$$$$

  CDD

  0  0  0  0  0  0            999 V2000
M  END
> <Molecule Name>
CVD-0000536

> <SMILES>
Cc1ccncc1NC(=O)NC1(CC1)Oc1ccccc1

$$$$

  CDD

  0  0  0  0  0  0            999 V2000
M  END
> <Molecule Name>
CVD-0000535

> <SMILES>
Cc1ccncc1NC(=O)NC1(CCCCC1)Oc1ccccc1

$$$$

  CDD

  0  0  0  0  0  0            999 V2000
M  END
> <Molecule Name>
CVD-0000534

> <SMILES>
Cc1nn(c2NC(=O)CSC3(CCCCC3)c12)-c1ccc(F)cc1

$$$$

  CDD

  0  0  0  0  0  0            999 V2000
M  END
> <Molecule Name>
CVD-0000533

> <SMILES>
COc1ccc(cc1)-n1nc(C)c2c1NC(=O)CSC21CCCCC1

$$$$

  CDD

  0  0  0  0  0  0            999 V2000
M  END
> <Molecule Name>
CVD-0000532

> <SMILES>
Cc1nn(c2NC(=O)CSC3(CCCCC3)c12)-c1ccc(Cl)cc1

$$$$

  CDD

  0  0  0  0  0  0            999 V2000
M  END
> <Molecule Name>
CVD-0000531

> <SMILES>
Cc1nn(c2NC(=O)CSC3(CCCCC3)c12)-c1ccccc1

$$$$

  CDD

  0  0  0  0  0  0            999 V2000
M  END
> <Molecule Name>
CVD-0000530

> <SMILES>
ClCC(=O)N1C(=O)\C(=C/C(=O)c2ccccc2)c2ccccc12

$$$$

  CDD

  0  0  0  0  0  0            999 V2000
M  END
> <Molecule Name>
CVD-0000529

> <SMILES>
Cc1ncc(O)c(CNC(CS)C(O)=O)c1COP(O)(O)=O

$$$$

  CDD

  0  0  0  0  0  0            999 V2000
M  END
> <Molecule Name>
CVD-0000528

> <SMILES>
CC(=O)NCCc1cccc(CC(=O)NCc2cccnc2)c1

$$$$

  CDD

  0  0  0  0  0  0            999 V2000
M  END
> <Molecule Name>
CVD-0000527

> <SMILES>
COc1cccc(NC(=O)Cc2cccc(CS(N)(=O)=O)c2)c1

$$$$

  CDD

  0  0  0  0  0  0            999 V2000
M  END
> <Molecule Name>
CVD-0000526

> <SMILES>
NS(=O)(=O)Cc1cccc(CC(=O)Nc2cccnc2)c1

$$$$

  CDD

  0  0  0  0  0  0            999 V2000
M  END
> <Molecule Name>
CVD-0000525

> <SMILES>
NS(=O)(=O)c1cccc(CCC(=O)Nc2cccnc2)c1

$$$$

  CDD

  0  0  0  0  0  0            999 V2000
M  END
> <Molecule Name>
CVD-0000524

> <SMILES>
COc1cccc(NC(=O)Cc2cccc(CCNC(C)=O)c2)c1

$$$$

  CDD

  0  0  0  0  0  0            999 V2000
M  END
> <Molecule Name>
CVD-0000523

> <SMILES>
NS(=O)(=O)c1cccc(CC(=O)Nc2cccnc2)c1

$$$$

  CDD

  0  0  0  0  0  0            999 V2000
M  END
> <Molecule Name>
CVD-0000522

> <SMILES>
CC(=O)NCCc1cccc(CC(=O)Nc2cccnc2)c1

$$$$

  CDD

  0  0  0  0  0  0            999 V2000
M  END
> <Molecule Name>
CVD-0000521

> <SMILES>
CNS(=O)(=O)NCCCCN(C1CCCCC1)C(=O)Nc1cnccc1C

$$$$

  CDD

  0  0  0  0  0  0            999 V2000
M  END
> <Molecule Name>
CVD-0000520

> <SMILES>
Cc1ccncc1NC(=O)N(CCCCNS(N)(=O)=O)C1CCCCC1

$$$$

  CDD

  0  0  0  0  0  0            999 V2000
M  END
> <Molecule Name>
CVD-0000519

> <SMILES>
Cc1ccncc1NC(=O)N(CCCNS(N)(=O)=O)C1CCCCC1

$$$$

  CDD

  0  0  0  0  0  0            999 V2000
M  END
> <Molecule Name>
CVD-0000518

> <SMILES>
OCNC(=O)NCc1ccncc1NC(=O)CC1CCCCC1

$$$$

  CDD

  0  0  0  0  0  0            999 V2000
M  END
> <Molecule Name>
CVD-0000517

> <SMILES>
OCc1ccncc1NC(=O)CC1(CCCCC1)C#N

$$$$

  CDD

  0  0  0  0  0  0            999 V2000
M  END
> <Molecule Name>
CVD-0000516

> <SMILES>
OCc1ccncc1NC(=O)CC1(Cn2cnnn2)CCCCC1

$$$$

  CDD

  0  0  0  0  0  0            999 V2000
M  END
> <Molecule Name>
CVD-0000515

> <SMILES>
OCc1ccncc1NC(=O)C(O)C1CCCCC1

$$$$

  CDD

  0  0  0  0  0  0            999 V2000
M  END
> <Molecule Name>
CVD-0000514

> <SMILES>
OCc1ccncc1NC(=O)CC1CCCCC1

$$$$

  CDD

  0  0  0  0  0  0            999 V2000
M  END
> <Molecule Name>
CVD-0000513

> <SMILES>
OCc1ccncc1NC(=O)CC12CCC(CC1)C2

$$$$

  CDD

  0  0  0  0  0  0            999 V2000
M  END
> <Molecule Name>
CVD-0000512

> <SMILES>
Cc1ccncc1NC(=O)N(CCCS(=O)(=O)NCCc1ccn[nH]1)C1CCCCC1

$$$$

  CDD

  0  0  0  0  0  0            999 V2000
M  END
> <Molecule Name>
CVD-0000511

> <SMILES>
Cc1ccncc1NC(=O)N(CCCS(=O)(=O)NCc1ccn[nH]1)C1CCCCC1

$$$$

  CDD

  0  0  0  0  0  0            999 V2000
M  END
> <Molecule Name>
CVD-0000510

> <SMILES>
Cc1ccncc1NC(=O)N(CCCS(=O)(=O)NCCC(N)=O)C1CCCCC1

$$$$

  CDD

  0  0  0  0  0  0            999 V2000
M  END
> <Molecule Name>
CVD-0000509

> <SMILES>
CC(=O)c1ccc(F)cc1NC(=O)NC(Cc1ccc(O)cc1)C(=O)NC(CNS(N)(=O)=O)c1ccccc1

$$$$

  CDD

  0  0  0  0  0  0            999 V2000
M  END
> <Molecule Name>
CVD-0000508

> <SMILES>
NS(=O)(=O)NCC(NC(=O)C(Cc1ccc(O)cc1)NC(=O)Nc1c(F)cc(F)cc1F)c1ccccc1

$$$$

  CDD

  0  0  0  0  0  0            999 V2000
M  END
> <Molecule Name>
CVD-0000507

> <SMILES>
Cc1nn(C)c(NC(=O)NC(Cc2ccc(O)cc2)C(=O)NC(CNS(N)(=O)=O)c2ccccc2)c1Cl

$$$$

  CDD

  0  0  0  0  0  0            999 V2000
M  END
> <Molecule Name>
CVD-0000506

> <SMILES>
NS(=O)(=O)NCC(NC(=O)C(Cc1ccc(O)cc1)NC(=O)Nc1cc2ccccc2cn1)c1ccccc1

$$$$

  CDD

  0  0  0  0  0  0            999 V2000
M  END
> <Molecule Name>
CVD-0000505

> <SMILES>
Cc1cccc(Cl)c1NC(=O)NC(Cc1ccc(O)cc1)C(=O)NC(CNS(N)(=O)=O)c1ccccc1

$$$$

  CDD

  0  0  0  0  0  0            999 V2000
M  END
> <Molecule Name>
CVD-0000504

> <SMILES>
Cn1cc(Cl)c(NC(=O)NC(Cc2ccc(O)cc2)C(=O)NC(CNS(N)(=O)=O)c2ccccc2)n1

$$$$

  CDD

  0  0  0  0  0  0            999 V2000
M  END
> <Molecule Name>
CVD-0000503

> <SMILES>
CCc1cnn(C)c1NC(=O)NC(Cc1ccc(O)cc1)C(=O)NC(CNS(N)(=O)=O)c1ccccc1

$$$$

  CDD

  0  0  0  0  0  0            999 V2000
M  END
> <Molecule Name>
CVD-0000502

> <SMILES>
Cc1cccc(NC(=O)NC(Cc2ccc(O)cc2)C(=O)NC(CNS(N)(=O)=O)c2ccccc2)n1

$$$$

  CDD

  0  0  0  0  0  0            999 V2000
M  END
> <Molecule Name>
CVD-0000501

> <SMILES>
NS(=O)(=O)NCC(NC(=O)C(Cc1ccc(O)cc1)NC(=O)Nc1ccsc1)c1ccccc1

$$$$

  CDD

  0  0  0  0  0  0            999 V2000
M  END
> <Molecule Name>
CVD-0000500

> <SMILES>
Cc1cccc(CO)c1NC(=O)NC(Cc1ccc(O)cc1)C(=O)N(CCCC(N)=O)CCN1CCCN(C1)C(=O)CCl

$$$$

  CDD

  0  0  0  0  0  0            999 V2000
M  END
> <Molecule Name>
CVD-0000499

> <SMILES>
Cc1cccc(CO)c1NC(=O)NC(Cc1ccc(O)cc1)C(=O)N(CCCC(N)=O)CCNC(CS)C(O)=O

$$$$

  CDD

  0  0  0  0  0  0            999 V2000
M  END
> <Molecule Name>
CVD-0000498

> <SMILES>
NC(=O)CCCN(CCNS(N)(=O)=O)C(=O)C(Cc1ccc(O)cc1)NC(=O)Nc1ncc[nH]1

$$$$

  CDD

  0  0  0  0  0  0            999 V2000
M  END
> <Molecule Name>
CVD-0000497

> <SMILES>
NC(=O)CCCN(CCNS(N)(=O)=O)C(=O)C(Cc1ccc(O)cc1)NC(=O)Nc1c(F)cc(F)cc1F

$$$$

  CDD

  0  0  0  0  0  0            999 V2000
M  END
> <Molecule Name>
CVD-0000496

> <SMILES>
Cc1cccc(CO)c1NC(=O)NC(Cc1ccc(O)cc1)C(=O)N(CCCC(N)=O)CCNS(N)(=O)=O

$$$$

  CDD

  0  0  0  0  0  0            999 V2000
M  END
> <Molecule Name>
CVD-0000495

> <SMILES>
NC(=O)CCCN(C1CCCCC1)C(=O)Nc1cnccc1CNC(=O)NCCO

$$$$

  CDD

  0  0  0  0  0  0            999 V2000
M  END
> <Molecule Name>
CVD-0000494

> <SMILES>
NS(=O)(=O)CCCN(C1CCCCC1)C(=O)Nc1cnccc1CNC(=O)NCCO

$$$$

  CDD

  0  0  0  0  0  0            999 V2000
M  END
> <Molecule Name>
CVD-0000493

> <SMILES>
NC[C@@H](CCc1cncc(CO)c1)c1ccccc1

$$$$

  CDD

  0  0  0  0  0  0            999 V2000
M  END
> <Molecule Name>
CVD-0000492

> <SMILES>
NS(=O)(=O)NCCN(CCCBr)C(=O)C(Cc1ccc(O)cc1)NC(=O)Nc1c(F)cc(F)cc1F

$$$$

  CDD

  0  0  0  0  0  0            999 V2000
M  END
> <Molecule Name>
CVD-0000491

> <SMILES>
Cn1cnc(NC(=O)NC(Cc2ccc(O)cc2)C(=O)N(CCCBr)CCNS(N)(=O)=O)n1

$$$$

  CDD

  0  0  0  0  0  0            999 V2000
M  END
> <Molecule Name>
CVD-0000490

> <SMILES>
NS(=O)(=O)NCCN(CCCBr)C(=O)C(Cc1ccc(O)cc1)NC(=O)Nc1cccnc1

$$$$

  CDD

  0  0  0  0  0  0            999 V2000
M  END
> <Molecule Name>
CVD-0000489

> <SMILES>
NC(=O)CCNS(=O)(=O)CCCN(C1CCCCC1)C(=O)Nc1cnccc1CNC(=O)NCCc1ccn[nH]1

$$$$

  CDD

  0  0  0  0  0  0            999 V2000
M  END
> <Molecule Name>
CVD-0000488

> <SMILES>
O=c1c(NCCN2CCNCC2)c(N(Cc2ccccn2)Cc2ccccn2)c1=O

$$$$

  CDD

  0  0  0  0  0  0            999 V2000
M  END
> <Molecule Name>
CVD-0000487

> <SMILES>
FC1=CC=C(C1)NC(=O)Nc1ccc(cc1)C(=O)Nc1cn[nH]c1

$$$$

  CDD

  0  0  0  0  0  0            999 V2000
M  END
> <Molecule Name>
CVD-0000486

> <SMILES>
Clc1ccc(CNC2=CC=CC2)c(c1)C(=O)Nc1ccccc1

$$$$

  CDD

  0  0  0  0  0  0            999 V2000
M  END
> <Molecule Name>
CVD-0000485

> <SMILES>
FC1=CC=C(C1)NC(=O)Nc1ccc(CNc2ccccc2)cc1

$$$$

  CDD

  0  0  0  0  0  0            999 V2000
M  END
> <Molecule Name>
CVD-0000484

> <SMILES>
O=C(NC1=CC=CC[C@H]1C(=O)NC1=CC=CC1)Nc1cccnc1

$$$$

  CDD

  0  0  0  0  0  0            999 V2000
M  END
> <Molecule Name>
CVD-0000483

> <SMILES>
Cc1ncccc1NC(=O)Nc1ccc(F)cc1

$$$$

  CDD

  0  0  0  0  0  0            999 V2000
M  END
> <Molecule Name>
CVD-0000482

> <SMILES>
Cc1ccc(NC(=O)Nc2cn[nH]c2)cc1C

$$$$

  CDD

  0  0  0  0  0  0            999 V2000
M  END
> <Molecule Name>
CVD-0000481

> <SMILES>
Clc1ccc(NC(=O)Nc2cc[nH]c2)cc1

$$$$

  CDD

  0  0  0  0  0  0            999 V2000
M  END
> <Molecule Name>
CVD-0000480

> <SMILES>
Fc1cccc(NC(=O)Nc2cc[nH]c2)c1

$$$$

  CDD

  0  0  0  0  0  0            999 V2000
M  END
> <Molecule Name>
CVD-0000479

> <SMILES>
Cc1cc(ccc1O)-c1nc2ccccc2[nH]1

$$$$

  CDD

  0  0  0  0  0  0            999 V2000
M  END
> <Molecule Name>
CVD-0000478

> <SMILES>
Cc1cccc2nc([nH]c12)-c1ccc(O)cc1O

$$$$

  CDD

  0  0  0  0  0  0            999 V2000
M  END
> <Molecule Name>
CVD-0000477

> <SMILES>
O=C(Nc1cn[nH]c1)Nc1cccc(c1)-c1cccnc1

$$$$

  CDD

  0  0  0  0  0  0            999 V2000
M  END
> <Molecule Name>
CVD-0000476

> <SMILES>
Cc1cccc(CCc2nc3cc(Cl)ccc3[nH]2)c1

$$$$

  CDD

  0  0  0  0  0  0            999 V2000
M  END
> <Molecule Name>
CVD-0000475

> <SMILES>
Cc1cc(NC2CCCC2)cc(c1)C(=O)Nc1ccccc1

$$$$

  CDD

  0  0  0  0  0  0            999 V2000
M  END
> <Molecule Name>
CVD-0000474

> <SMILES>
Clc1ccc(CNc2cccnc2)c(CNc2ccccn2)c1

$$$$

  CDD

  0  0  0  0  0  0            999 V2000
M  END
> <Molecule Name>
CVD-0000473

> <SMILES>
COc1cncc2[nH]cc(C(=O)C(=O)N3CCN(CC3)C(=O)c3ccccc3)c12

$$$$

  CDD

  0  0  0  0  0  0            999 V2000
M  END
> <Molecule Name>
CVD-0000472

> <SMILES>
O=C(N1CCN(CC1)C(=O)c1ccccc1)C(=O)c1c[nH]c2cnccc12

$$$$

  CDD

  0  0  0  0  0  0            999 V2000
M  END
> <Molecule Name>
CVD-0000471

> <SMILES>
Clc1cccc(c1)C(=O)N1CCN(CC1)C(=O)C(=O)c1c[nH]c2cnccc12

$$$$

  CDD

  0  0  0  0  0  0            999 V2000
M  END
> <Molecule Name>
CVD-0000470

> <SMILES>
Fc1cccc(c1)C(=O)N1CCN(CC1)C(=O)C(=O)c1c[nH]c2cnccc12

$$$$

  CDD

  0  0  0  0  0  0            999 V2000
M  END
> <Molecule Name>
CVD-0000469

> <SMILES>
NC1CC(=O)C(CN1CN1CCCC2C=CC(=CC12)S(N)(=O)=O)S(N)(=O)=O

$$$$

  CDD

  0  0  0  0  0  0            999 V2000
M  END
> <Molecule Name>
CVD-0000468

> <SMILES>
NS(=O)(=O)C1=CC2C(CCCN2CN2CCC(=O)CC2)C=C1

$$$$

  CDD

  0  0  0  0  0  0            999 V2000
M  END
> <Molecule Name>
CVD-0000467

> <SMILES>
CCNc1ccc(C)cc1CN1CCC(O)CC1

$$$$

  CDD

  0  0  0  0  0  0            999 V2000
M  END
> <Molecule Name>
CVD-0000466

> <SMILES>
CC(=O)NCCc1c[nH]c2c(CCNS(C)(=O)=O)cccc12

$$$$

  CDD

  0  0  0  0  0  0            999 V2000
M  END
> <Molecule Name>
CVD-0000465

> <SMILES>
CC(Cl)C(=O)N1CCC(CC1)C(=O)N1CCCCC1

$$$$

  CDD

  0  0  0  0  0  0            999 V2000
M  END
> <Molecule Name>
CVD-0000464

> <SMILES>
CCNc1ncc(cc1CN1CCN(CC1)C(=O)CCl)C#N

$$$$

  CDD

  0  0  0  0  0  0            999 V2000
M  END
> <Molecule Name>
CVD-0000463

> <SMILES>
CN1C(=O)[C@H](Cc2cc(O)cc(F)c2)c2cc(F)cc([C@@H]3CN(CCO3)C(=O)CCl)c12

$$$$

  CDD

  0  0  0  0  0  0            999 V2000
M  END
> <Molecule Name>
CVD-0000462

> <SMILES>
Oc1cc(F)cc(C[C@H]2CCc3c2cc(F)cc3[C@@H]2CN(CCO2)C(=O)CCl)c1

$$$$

  CDD

  0  0  0  0  0  0            999 V2000
M  END
> <Molecule Name>
CVD-0000461

> <SMILES>
CNC(=O)c1cc2cccc(CN3CCN(CC3)C(=O)CCl)c2nc1N1CCOCC1

$$$$

  CDD

  0  0  0  0  0  0            999 V2000
M  END
> <Molecule Name>
CVD-0000460

> <SMILES>
Oc1cc(F)cc(C[C@H]2OCc3c2cc(F)cc3[C@@H]2CN(CCO2)C(=O)CCl)c1

$$$$

  CDD

  0  0  0  0  0  0            999 V2000
M  END
> <Molecule Name>
CVD-0000459

> <SMILES>
Cc1ccc2c(cc(CN3CCN(CC3)C(=O)CCl)n2c1)C#Cc1ccc(F)cc1O

$$$$

  CDD

  0  0  0  0  0  0            999 V2000
M  END
> <Molecule Name>
CVD-0000458

> <SMILES>
Oc1cc(F)ccc1C#Cc1cc(n2cc(F)ccc12)C1(CC1)N1CCN(C2C[C@H]12)C(=O)CCl

$$$$

  CDD

  0  0  0  0  0  0            999 V2000
M  END
> <Molecule Name>
CVD-0000457

> <SMILES>
Oc1cc(F)ccc1C#Cc1cc(n2ccccc12)C1(CC1)N1CCN(CC1)C(=O)CCl

$$$$

  CDD

  0  0  0  0  0  0            999 V2000
M  END
> <Molecule Name>
CVD-0000456

> <SMILES>
Oc1cc(F)ccc1C#Cc1cc(n2ccccc12)C1(CC1)N1CCN(C2C[C@H]12)C(=O)CCl

$$$$

  CDD

  0  0  0  0  0  0            999 V2000
M  END
> <Molecule Name>
CVD-0000455

> <SMILES>
CN1Cc2ccc(F)c(c2C[C@H]1C(=O)[C@H]1C[C@@H]1O)-c1cc(F)c(C)cc1[C@@H]1CN(CCO1)C(=O)CCl

$$$$

  CDD

  0  0  0  0  0  0            999 V2000
M  END
> <Molecule Name>
CVD-0000454

> <SMILES>
C[C@@H](N)C(=O)[C@@H]1CN(C)c2ccc(F)c(c2C1)-c1cc(F)ccc1[C@@H]1CN(CCO1)C(=O)CCl

$$$$

  CDD

  0  0  0  0  0  0            999 V2000
M  END
> <Molecule Name>
CVD-0000453

> <SMILES>
N[C@H]1C[C@@H]1c1cnc2c(CN3CCN(C(=O)CCl)C4(CC4)C3)cccc2c1

$$$$

  CDD

  0  0  0  0  0  0            999 V2000
M  END
> <Molecule Name>
CVD-0000452

> <SMILES>
CNC(=O)c1cc2cccc(CN3CCN(CC3)C(=O)CCl)c2nc1N1CCN(C)CC1

$$$$

  CDD

  0  0  0  0  0  0            999 V2000
M  END
> <Molecule Name>
CVD-0000451

> <SMILES>
C[C@@H]1CN(Cc2cccc3cc([C@H]4C[C@@H]4N)c(nc23)N2CCN(C)CC2)CCN1C(=O)CCl

$$$$

  CDD

  0  0  0  0  0  0            999 V2000
M  END
> <Molecule Name>
CVD-0000450

> <SMILES>
CC(C)=CCC(COC(C)=O)C(C)=C

$$$$

  CDD

  0  0  0  0  0  0            999 V2000
M  END
> <Molecule Name>
CVD-0000449

> <SMILES>
CC12CCC(CC1)C(C)(C)O2

$$$$

  CDD

  0  0  0  0  0  0            999 V2000
M  END
> <Molecule Name>
CVD-0000448

> <SMILES>
NC(=O)c1cc(cc2nc3c(cccc3nc12)C(O)=O)C(=O)c1ccccc1

$$$$

  CDD

  0  0  0  0  0  0            999 V2000
M  END
> <Molecule Name>
CVD-0000447

> <SMILES>
Cn1c2cccc(C(O)=O)c2nc2ccc3c(-c4ccccc4)c(=O)[nH]c(=O)c3c12

$$$$

  CDD

  0  0  0  0  0  0            999 V2000
M  END
> <Molecule Name>
CVD-0000446

> <SMILES>
CN1c2cccc(C(N)=O)c2N=c2cc3Oc4ccccc4N=c3c(C(N)=O)c12

$$$$

  CDD

  0  0  0  0  0  0            999 V2000
M  END
> <Molecule Name>
CVD-0000445

> <SMILES>
CCNc1ccc(F)c(Cc2cc(CC)cc(NCC(=O)Nc3cccnc3)c2)n1

$$$$

  CDD

  0  0  0  0  0  0            999 V2000
M  END
> <Molecule Name>
CVD-0000444

> <SMILES>
CCNc1ccc(F)c(Cc2cc(CC)cc(NCC(=O)Nc3ccc(F)nc3)c2)n1

$$$$

  CDD

  0  0  0  0  0  0            999 V2000
M  END
> <Molecule Name>
CVD-0000443

> <SMILES>
CCNc1ccc(F)c(Cc2cc(C)cc(NCC(=O)Nc3ccc(F)nc3)c2)n1

$$$$

  CDD

  0  0  0  0  0  0            999 V2000
M  END
> <Molecule Name>
CVD-0000442

> <SMILES>
CCNc1ccc(F)c(Cc2cc(Cl)cc(NCC(=O)Nc3ccc(F)nc3)c2)n1

$$$$

  CDD

  0  0  0  0  0  0            999 V2000
M  END
> <Molecule Name>
CVD-0000441

> <SMILES>
CCNc1ccc(F)c(Cc2cc(F)cc(NCC(=O)Nc3ccc(F)nc3)c2)n1

$$$$

  CDD

  0  0  0  0  0  0            999 V2000
M  END
> <Molecule Name>
CVD-0000440

> <SMILES>
CCNc1ccc(F)c(Cc2cc(F)cc(NCC(=O)NC(=O)C=C)c2)n1

$$$$

  CDD

  0  0  0  0  0  0            999 V2000
M  END
> <Molecule Name>
CVD-0000439

> <SMILES>
CCNc1ccc(F)c(Cc2cc(OCC(=O)NC(=O)C=C)ccc2Cl)n1

$$$$

  CDD

  0  0  0  0  0  0            999 V2000
M  END
> <Molecule Name>
CVD-0000438

> <SMILES>
CCNc1ccc(F)c(Cc2cc(F)cc(NCC(=O)Nc3cccnc3)c2)n1

$$$$

  CDD

  0  0  0  0  0  0            999 V2000
M  END
> <Molecule Name>
CVD-0000437

> <SMILES>
CCNc1ccc(F)c(Cc2cc(NCC(=O)NC(=O)C=C)ccc2Cl)n1

$$$$

  CDD

  0  0  0  0  0  0            999 V2000
M  END
> <Molecule Name>
CVD-0000436

> <SMILES>
CCNc1ccc(F)c(Cc2cc(NCC(=O)Nc3cccc(Cl)c3)ccc2Cl)n1

$$$$

  CDD

  0  0  0  0  0  0            999 V2000
M  END
> <Molecule Name>
CVD-0000435

> <SMILES>
CCNc1ccc(F)c(Cc2cc(NCC(=O)Nc3cccc(c3)C(F)(F)F)ccc2Cl)n1

$$$$

  CDD

  0  0  0  0  0  0            999 V2000
M  END
> <Molecule Name>
CVD-0000434

> <SMILES>
CCNc1ccc(F)c(Cc2cc(NCC(=O)Nc3ccc(F)nc3)ccc2Cl)n1

$$$$

  CDD

  0  0  0  0  0  0            999 V2000
M  END
> <Molecule Name>
CVD-0000433

> <SMILES>
CCNc1ccc(F)c(Cc2cc(NCC(=O)Nc3cccnc3)ccc2Cl)n1

$$$$

  CDD

  0  0  0  0  0  0            999 V2000
M  END
> <Molecule Name>
CVD-0000432

> <SMILES>
CCNc1ccc(F)c(Cc2cc(OCC(=O)Nc3cccnc3)ccc2Cl)n1

$$$$

  CDD

  0  0  0  0  0  0            999 V2000
M  END
> <Molecule Name>
CVD-0000431

> <SMILES>
CCNc1ccc(C#N)c(Cc2cc(NCC(=O)Nc3cccnc3)ccc2Cl)n1

$$$$

  CDD

  0  0  0  0  0  0            999 V2000
M  END
> <Molecule Name>
CVD-0000430

> <SMILES>
CCNc1ccc(F)c(Cc2cc(CC)cc(NCC(=O)NC(=O)C=C)c2)n1

$$$$

  CDD

  0  0  0  0  0  0            999 V2000
M  END
> <Molecule Name>
CVD-0000429

> <SMILES>
CCNc1ccc(C#N)c(Cc2cc(OCC(=O)Nc3cccnc3)ccc2Cl)n1

$$$$

  CDD

  0  0  0  0  0  0            999 V2000
M  END
> <Molecule Name>
CVD-0000428

> <SMILES>
CCNc1ccc(F)c(Cc2cc(C)cc(NCC(=O)NC(=O)C=C)c2)n1

$$$$

  CDD

  0  0  0  0  0  0            999 V2000
M  END
> <Molecule Name>
CVD-0000427

> <SMILES>
CCNc1ccc(F)c(Cc2cccc(NCC(=O)Nc3cccnc3)c2)n1

$$$$

  CDD

  0  0  0  0  0  0            999 V2000
M  END
> <Molecule Name>
CVD-0000426

> <SMILES>
CCCc1c[nH]c2c(Oc3cc(ccn3)-c3cnc[nH]3)cc(F)c(Cl)c12

$$$$

  CDD

  0  0  0  0  0  0            999 V2000
M  END
> <Molecule Name>
CVD-0000425

> <SMILES>
CCc1c[nH]c2c(Oc3cc(Cc4ccn[nH]4)ccn3)cc(F)cc12

$$$$

  CDD

  0  0  0  0  0  0            999 V2000
M  END
> <Molecule Name>
CVD-0000424

> <SMILES>
CCc1c[nH]c2c(Oc3cc(Cc4cnc[nH]4)ccn3)cc(F)cc12

$$$$

  CDD

  0  0  0  0  0  0            999 V2000
M  END
> <Molecule Name>
CVD-0000423

> <SMILES>
CCCc1c[nH]c2c(Oc3cc(Cc4cnc[nH]4)ccn3)cc(F)c(Cl)c12

$$$$

  CDD

  0  0  0  0  0  0            999 V2000
M  END
> <Molecule Name>
CVD-0000422

> <SMILES>
CCCc1c[nH]c2c(Oc3cc(Cc4ccn[nH]4)ccn3)cc(F)c(Cl)c12

$$$$

  CDD

  0  0  0  0  0  0            999 V2000
M  END
> <Molecule Name>
CVD-0000421

> <SMILES>
CCCc1c[nH]c2c(Oc3cc(C)ccn3)cc(F)c(Cl)c12

$$$$

  CDD

  0  0  0  0  0  0            999 V2000
M  END
> <Molecule Name>
CVD-0000420

> <SMILES>
CCCc1c[nH]c2c(Oc3nccc(C)c3F)cc(F)c(Cl)c12

$$$$

  CDD

  0  0  0  0  0  0            999 V2000
M  END
> <Molecule Name>
CVD-0000419

> <SMILES>
CCCc1c(Cl)[nH]c2c(OC3CCN(CC3)C(C)=O)cc(F)c(Cl)c12

$$$$

  CDD

  0  0  0  0  0  0            999 V2000
M  END
> <Molecule Name>
CVD-0000418

> <SMILES>
CCCc1c(Cl)[nH]c2c(OC3CCN(CC3)C(C)=O)cc(F)cc12

$$$$

  CDD

  0  0  0  0  0  0            999 V2000
M  END
> <Molecule Name>
CVD-0000417

> <SMILES>
CCCc1c[nH]c2c(OC3CCN(CC3)C(C)=O)cc(F)cc12

$$$$

  CDD

  0  0  0  0  0  0            999 V2000
M  END
> <Molecule Name>
CVD-0000416

> <SMILES>
CCc1c[nH]c2c(OC3CCN(CC3)C(C)=O)cc(F)c(Cl)c12

$$$$

  CDD

  0  0  0  0  0  0            999 V2000
M  END
> <Molecule Name>
CVD-0000415

> <SMILES>
CCc1c[nH]c2c(OC3CCN(CC3)C(C)=O)cc(F)cc12

$$$$

  CDD

  0  0  0  0  0  0            999 V2000
M  END
> <Molecule Name>
CVD-0000414

> <SMILES>
CC(=O)N1CCN(Cc2cc(F)cc3c(c[nH]c23)C(F)(F)F)CC1

$$$$

  CDD

  0  0  0  0  0  0            999 V2000
M  END
> <Molecule Name>
CVD-0000413

> <SMILES>
CCC(=O)N1CCN(Cc2cc(F)c(Cl)c3c(CC)c[nH]c23)CC1

$$$$

  CDD

  0  0  0  0  0  0            999 V2000
M  END
> <Molecule Name>
CVD-0000412

> <SMILES>
CCC(=O)N1CCN(Cc2cc(F)cc3c(CC)c[nH]c23)CC1

$$$$

  CDD

  0  0  0  0  0  0            999 V2000
M  END
> <Molecule Name>
CVD-0000411

> <SMILES>
CCc1c[nH]c2c(CN3CCN(CC3)C(C)=O)cc(F)cc12

$$$$

  CDD

  0  0  0  0  0  0            999 V2000
M  END
> <Molecule Name>
CVD-0000410

> <SMILES>
CCc1c[nH]c2c(CN3CCN(CC3)C(C)=O)cc(F)c(Cl)c12

$$$$

  CDD

  0  0  0  0  0  0            999 V2000
M  END
> <Molecule Name>
CVD-0000409

> <SMILES>
CCCc1c[nH]c2c(Oc3nccc(C)c3F)cc(F)c(F)c12

$$$$

  CDD

  0  0  0  0  0  0            999 V2000
M  END
> <Molecule Name>
CVD-0000408

> <SMILES>
Cc1ccnc(Oc2cc(F)cc3c(c[nH]c23)C(F)(F)F)c1

$$$$

  CDD

  0  0  0  0  0  0            999 V2000
M  END
> <Molecule Name>
CVD-0000407

> <SMILES>
CCc1c(F)[nH]c2c(Oc3cc(C)ccn3)cc(F)cc12

$$$$

  CDD

  0  0  0  0  0  0            999 V2000
M  END
> <Molecule Name>
CVD-0000406

> <SMILES>
CCc1c(F)[nH]c2c(Oc3cc(ccn3)-c3cnc[nH]3)cc(F)cc12

$$$$

  CDD

  0  0  0  0  0  0            999 V2000
M  END
> <Molecule Name>
CVD-0000405

> <SMILES>
CCCc1c[nH]c2c(Oc3cc(C)cc(n3)S(N)(=O)=O)cc(F)cc12

$$$$

  CDD

  0  0  0  0  0  0            999 V2000
M  END
> <Molecule Name>
CVD-0000404

> <SMILES>
CCc1c[nH]c2c(Oc3cc(C)cc(n3)S(N)(=O)=O)cc(F)cc12

$$$$

  CDD

  0  0  0  0  0  0            999 V2000
M  END
> <Molecule Name>
CVD-0000403

> <SMILES>
CCc1c[nH]c2c(Nc3cc(C)cc(n3)S(N)(=O)=O)cc(F)cc12

$$$$

  CDD

  0  0  0  0  0  0            999 V2000
M  END
> <Molecule Name>
CVD-0000402

> <SMILES>
CCNc1c[nH]c2c(Oc3cc(C)c(Br)cn3)c(Cl)c(F)cc12

$$$$

  CDD

  0  0  0  0  0  0            999 V2000
M  END
> <Molecule Name>
CVD-0000401

> <SMILES>
CNc1c[nH]c2c(Oc3cc(C)c(Br)cn3)c(Cl)c(F)cc12

$$$$

  CDD

  0  0  0  0  0  0            999 V2000
M  END
> <Molecule Name>
CVD-0000400

> <SMILES>
CCc1c[nH]c2c(Oc3cc(ccn3)-c3cnc[nH]3)cc(F)cc12

$$$$

  CDD

  0  0  0  0  0  0            999 V2000
M  END
> <Molecule Name>
CVD-0000399

> <SMILES>
CCCc1c[nH]c2c(Oc3cc(ccn3)-c3cnc[nH]3)cc(F)cc12

$$$$

  CDD

  0  0  0  0  0  0            999 V2000
M  END
> <Molecule Name>
CVD-0000398

> <SMILES>
CCc1c(F)[nH]c2c(Oc3cc(C)c(Cl)cn3)cc(OC)c(Cl)c12

$$$$

  CDD

  0  0  0  0  0  0            999 V2000
M  END
> <Molecule Name>
CVD-0000397

> <SMILES>
CCOc1cc(Nc2cscc2[C@@H]2CCC[C@@H]2C(=O)NC(=O)C=C)c(cn1)C#N

$$$$

  CDD

  0  0  0  0  0  0            999 V2000
M  END
> <Molecule Name>
CVD-0000396

> <SMILES>
CNC(=O)[C@@H]1CCC[C@H]1c1cc(F)sc1-c1ncc(NC)cn1

$$$$

  CDD

  0  0  0  0  0  0            999 V2000
M  END
> <Molecule Name>
CVD-0000395

> <SMILES>
CNC(=O)[C@@H]1CCC[C@H]1c1ccsc1-c1ncc(NC)cn1

$$$$

  CDD

  0  0  0  0  0  0            999 V2000
M  END
> <Molecule Name>
CVD-0000394

> <SMILES>
CNc1cnc(nc1)-c1sccc1[C@@H]1CCC[C@H]1C(=O)NC(=O)C=C

$$$$

  CDD

  0  0  0  0  0  0            999 V2000
M  END
> <Molecule Name>
CVD-0000393

> <SMILES>
CNc1cnc(nc1)-c1sccc1[C@@H]1CCC[C@H]1C(=O)NC(=O)OC

$$$$

  CDD

  0  0  0  0  0  0            999 V2000
M  END
> <Molecule Name>
CVD-0000392

> <SMILES>
CNc1cnc(nc1)-c1scc(Cl)c1[C@@H]1CCC[C@H]1C(=O)NC(=O)C=C

$$$$

  CDD

  0  0  0  0  0  0            999 V2000
M  END
> <Molecule Name>
CVD-0000391

> <SMILES>
CNc1cnc(nc1)-c1scc(Cl)c1[C@@H]1CCC[C@H]1C(=O)NC(=O)OC

$$$$

  CDD

  0  0  0  0  0  0            999 V2000
M  END
> <Molecule Name>
CVD-0000390

> <SMILES>
CNc1cnc(nc1F)-c1sc(F)cc1[C@@H]1CCC[C@H]1C(=O)NC(=O)OC

$$$$

  CDD

  0  0  0  0  0  0            999 V2000
M  END
> <Molecule Name>
CVD-0000389

> <SMILES>
CNc1cnc(nc1F)-c1sccc1[C@@H]1CCC[C@H]1C(=O)NC(=O)OC

$$$$

  CDD

  0  0  0  0  0  0            999 V2000
M  END
> <Molecule Name>
CVD-0000388

> <SMILES>
CNc1cnc(nc1)-c1sccc1[C@@H]1CCC[C@H]1C(=O)NC(=O)OC(F)(F)F

$$$$

  CDD

  0  0  0  0  0  0            999 V2000
M  END
> <Molecule Name>
CVD-0000387

> <SMILES>
CCNc1ncc(C#N)c(Nc2cscc2[C@@H]2CCC[C@@H]2C(=O)NC(=O)C=C)c1F

$$$$

  CDD

  0  0  0  0  0  0            999 V2000
M  END
> <Molecule Name>
CVD-0000386

> <SMILES>
CNc1cnc(nc1F)-c1sc(F)cc1[C@@H]1CCC[C@H]1C(=O)NC(=O)C=C

$$$$

  CDD

  0  0  0  0  0  0            999 V2000
M  END
> <Molecule Name>
CVD-0000385

> <SMILES>
CNc1cnc(nc1F)-c1sccc1[C@@H]1CCC[C@H]1C(=O)NC(=O)C=C

$$$$

  CDD

  0  0  0  0  0  0            999 V2000
M  END
> <Molecule Name>
CVD-0000384

> <SMILES>
CNC(=O)[C@@H]1CCC[C@H]1c1ccsc1-c1ncc(NC)c(Cl)n1

$$$$

  CDD

  0  0  0  0  0  0            999 V2000
M  END
> <Molecule Name>
CVD-0000383

> <SMILES>
CNC(=O)[C@@H]1CCC[C@H]1c1ccsc1-c1ncc(NC)c(F)n1

$$$$

  CDD

  0  0  0  0  0  0            999 V2000
M  END
> <Molecule Name>
CVD-0000382

> <SMILES>
CCNc1cc(Nc2c(Cl)scc2[C@@H]2CCC[C@@H]2C(=O)NC(=O)C=C)c(cn1)C#N

$$$$

  CDD

  0  0  0  0  0  0            999 V2000
M  END
> <Molecule Name>
CVD-0000381

> <SMILES>
CCNc1cc(Nc2c(F)scc2[C@@H]2CCC[C@@H]2C(=O)NC(=O)C=C)c(cn1)C#N

$$$$

  CDD

  0  0  0  0  0  0            999 V2000
M  END
> <Molecule Name>
CVD-0000380

> <SMILES>
CCNc1cc(Nc2csc(OC)c2[C@@H]2CCC[C@@H]2C(=O)NC(=O)C=C)c(cn1)C#N

$$$$

  CDD

  0  0  0  0  0  0            999 V2000
M  END
> <Molecule Name>
CVD-0000379

> <SMILES>
COCCNc1nc(F)c(C#N)c(Nc2cscc2[C@@H]2CCC[C@@H]2C(=O)NC(=O)C=C)c1F

$$$$

  CDD

  0  0  0  0  0  0            999 V2000
M  END
> <Molecule Name>
CVD-0000378

> <SMILES>
COCCNc1cc(Nc2cscc2[C@@H]2CCC[C@@H]2C(=O)NC(=O)C=C)c(cn1)C#N

$$$$

  CDD

  0  0  0  0  0  0            999 V2000
M  END
> <Molecule Name>
CVD-0000377

> <SMILES>
CCNc1cc(Nc2cscc2[C@@H]2CCC[C@@H]2C(=O)NC(=O)C=C)c(cn1)C#N

$$$$

  CDD

  0  0  0  0  0  0            999 V2000
M  END
> <Molecule Name>
CVD-0000376

> <SMILES>
Cc1cc(ncn1)-c1ccc(CN2CCN(CC2)C(=O)C(F)(F)F)c(F)c1F

$$$$

  CDD

  0  0  0  0  0  0            999 V2000
M  END
> <Molecule Name>
CVD-0000375

> <SMILES>
Cc1cc(ncn1)-c1ccc(CN2CCN(CC2)C(=O)C(F)(F)F)cc1F

$$$$

  CDD

  0  0  0  0  0  0            999 V2000
M  END
> <Molecule Name>
CVD-0000374

> <SMILES>
CCOc1cc(CN2CCN(CC2)C(C)=O)cc(Cl)c1-c1cc(C)ncn1

$$$$

  CDD

  0  0  0  0  0  0            999 V2000
M  END
> <Molecule Name>
CVD-0000373

> <SMILES>
CCOc1cc(CN2CCN(CC2)C(C)=O)cc(F)c1-c1cc(C)ncn1

$$$$

  CDD

  0  0  0  0  0  0            999 V2000
M  END
> <Molecule Name>
CVD-0000372

> <SMILES>
CCc1cc(ncn1)-c1ccc(CN2CCN(CC2)C(C)=O)cc1Cl

$$$$

  CDD

  0  0  0  0  0  0            999 V2000
M  END
> <Molecule Name>
CVD-0000371

> <SMILES>
CCc1cc(ncn1)-c1ccc(CN2CCN(CC2)C(C)=O)cc1F

$$$$

  CDD

  0  0  0  0  0  0            999 V2000
M  END
> <Molecule Name>
CVD-0000370

> <SMILES>
CC(=O)N1CCN(Cc2ccc(c(Cl)c2)-c2cc(C)ncn2)CC1

$$$$

  CDD

  0  0  0  0  0  0            999 V2000
M  END
> <Molecule Name>
CVD-0000369

> <SMILES>
CC(=O)N1CCN(Cc2ccc(c(F)c2)-c2cc(C)ncn2)CC1

$$$$

  CDD

  0  0  0  0  0  0            999 V2000
M  END
> <Molecule Name>
CVD-0000368

> <SMILES>
Cc1cc(ncn1)-c1ccc(CN2CCN(CC2)C(=O)COC(F)(F)F)cc1F

$$$$

  CDD

  0  0  0  0  0  0            999 V2000
M  END
> <Molecule Name>
CVD-0000367

> <SMILES>
CC(=O)N1CCN(Cc2ccc(c(F)c2)-c2cc(F)nc(C)n2)CC1

$$$$

  CDD

  0  0  0  0  0  0            999 V2000
M  END
> <Molecule Name>
CVD-0000366

> <SMILES>
CC(=O)N1CCN(Cc2ccc(c(F)c2)-c2cc(C)nc(F)n2)CC1

$$$$

  CDD

  0  0  0  0  0  0            999 V2000
M  END
> <Molecule Name>
CVD-0000365

> <SMILES>
CC(=O)N1CCN(Cc2ccc(c(F)c2)-c2ncnc(C)c2C)CC1

$$$$

  CDD

  0  0  0  0  0  0            999 V2000
M  END
> <Molecule Name>
CVD-0000364

> <SMILES>
C[C@H]1CN(CCN1Cc1cc(F)c(c(F)c1)-c1cc(C)ncn1)C(C)=O

$$$$

  CDD

  0  0  0  0  0  0            999 V2000
M  END
> <Molecule Name>
CVD-0000363

> <SMILES>
CC(=O)N1CCN(Cc2ccc(c(F)c2Cl)-c2cc(C)ncn2)CC1

$$$$

  CDD

  0  0  0  0  0  0            999 V2000
M  END
> <Molecule Name>
CVD-0000362

> <SMILES>
CCOc1cc(CN2CCN(CC2)C(C)=O)cc(F)c1-c1cc(CC)ncn1

$$$$

  CDD

  0  0  0  0  0  0            999 V2000
M  END
> <Molecule Name>
CVD-0000361

> <SMILES>
CC(=O)N1CCN(Cc2ccc(c(Cl)c2)-c2ccnc(Cl)n2)CC1

$$$$

  CDD

  0  0  0  0  0  0            999 V2000
M  END
> <Molecule Name>
CVD-0000360

> <SMILES>
CC(=O)N1CCN(Cc2ccc(c(Br)c2)-c2cc(C)ncn2)CC1

$$$$

  CDD

  0  0  0  0  0  0            999 V2000
M  END
> <Molecule Name>
CVD-0000359

> <SMILES>
CCNc1ccc(F)c(Cc2cc(Cl)cc(NCC(=O)Nc3cccnc3)c2)n1

$$$$

  CDD

  0  0  0  0  0  0            999 V2000
M  END
> <Molecule Name>
CVD-0000358

> <SMILES>
C[C@@H](Cc1c(F)c(F)ccc1[C@H]1CN(CCO1)C(C)=O)Nc1ccc(cn1)C#N

$$$$

  CDD

  0  0  0  0  0  0            999 V2000
M  END
> <Molecule Name>
CVD-0000357

> <SMILES>
C[C@@H](Cc1cc(F)c(F)cc1[C@H]1CN(CCO1)C(C)=O)Nc1ccc(cn1)C#N

$$$$

  CDD

  0  0  0  0  0  0            999 V2000
M  END
> <Molecule Name>
CVD-0000356

> <SMILES>
C[C@@H](Cc1cc(F)ccc1[C@H]1CN(CCO1)C(C)=O)Nc1ccc(cn1)C#N

$$$$

  CDD

  0  0  0  0  0  0            999 V2000
M  END
> <Molecule Name>
CVD-0000355

> <SMILES>
C[C@H](Nc1cccnc1Cl)OCc1cc([C@@H]2CN(CCO2)C(=O)C=C)c(F)cc1F

$$$$

  CDD

  0  0  0  0  0  0            999 V2000
M  END
> <Molecule Name>
CVD-0000354

> <SMILES>
C[C@H](Nc1cccnc1Cl)OCc1cc(cc(F)c1F)[C@@H]1CN(CCO1)C(=O)C=C

$$$$

  CDD

  0  0  0  0  0  0            999 V2000
M  END
> <Molecule Name>
CVD-0000353

> <SMILES>
C[C@H](Nc1cccnc1Cl)OCc1cc(ccc1F)[C@@H]1CN(CCO1)C(=O)C=C

$$$$

  CDD

  0  0  0  0  0  0            999 V2000
M  END
> <Molecule Name>
CVD-0000352

> <SMILES>
C[C@H](Nc1cccnc1Cl)OCc1cc([C@@H]2CN(CCO2)C(C)=O)c(F)cc1F

$$$$

  CDD

  0  0  0  0  0  0            999 V2000
M  END
> <Molecule Name>
CVD-0000351

> <SMILES>
C[C@H](Nc1cccnc1Cl)OCc1cc(cc(F)c1F)[C@@H]1CN(CCO1)C(C)=O

$$$$

  CDD

  0  0  0  0  0  0            999 V2000
M  END
> <Molecule Name>
CVD-0000350

> <SMILES>
C[C@@H](Cc1ccc2OC[C@H](Oc2c1)[C@@H]1CN(CCO1)C(C)=O)Nc1ccc(cn1)C#N

$$$$

  CDD

  0  0  0  0  0  0            999 V2000
M  END
> <Molecule Name>
CVD-0000349

> <SMILES>
C[C@H](Cc1ccc2OC[C@@H](Oc2c1)[C@@H]1CN(CCO1)C(C)=O)Nc1ccc(cn1)C#N

$$$$

  CDD

  0  0  0  0  0  0            999 V2000
M  END
> <Molecule Name>
CVD-0000348

> <SMILES>
C[C@@H](Cc1c(F)c(F)ccc1[C@H]1CN(CCO1)C(=O)C=C)Nc1ccc(cn1)C#N

$$$$

  CDD

  0  0  0  0  0  0            999 V2000
M  END
> <Molecule Name>
CVD-0000347

> <SMILES>
C[C@@H](Cc1cc(F)c(F)cc1[C@H]1CN(CCO1)C(=O)C=C)Nc1ccc(cn1)C#N

$$$$

  CDD

  0  0  0  0  0  0            999 V2000
M  END
> <Molecule Name>
CVD-0000346

> <SMILES>
C[C@@H](Cc1cc(F)ccc1[C@H]1CN(CCO1)C(=O)C=C)Nc1ccc(cn1)C#N

$$$$

  CDD

  0  0  0  0  0  0            999 V2000
M  END
> <Molecule Name>
CVD-0000345

> <SMILES>
C[C@H](Nc1cccnc1Cl)OCc1cc(ccc1F)[C@@H]1CN(CCO1)C(C)=O

$$$$

  CDD

  0  0  0  0  0  0            999 V2000
M  END
> <Molecule Name>
CVD-0000344

> <SMILES>
CCOc1cc(cn(-c2cc(Cl)cc(c2)C(=O)Nc2ccco2)c1=O)-c1cnccc1C

$$$$

  CDD

  0  0  0  0  0  0            999 V2000
M  END
> <Molecule Name>
CVD-0000343

> <SMILES>
Cc1ccncc1-c1ccc(=O)n(c1)-c1cc(Cl)cc(c1)C(=O)Nc1ccco1

$$$$

  CDD

  0  0  0  0  0  0            999 V2000
M  END
> <Molecule Name>
CVD-0000342

> <SMILES>
CCOc1cc(cn(-c2cc(Cl)cc(c2)N2CCCC2=O)c1=O)-c1cnccc1C

$$$$

  CDD

  0  0  0  0  0  0            999 V2000
M  END
> <Molecule Name>
CVD-0000341

> <SMILES>
Cc1ccncc1-c1ccc(=O)n(c1)-c1cc(Cl)cc(c1)N1CCCC1=O

$$$$

  CDD

  0  0  0  0  0  0            999 V2000
M  END
> <Molecule Name>
CVD-0000340

> <SMILES>
Cc1ccncc1-c1ccc(=O)n(c1)-c1cccc(c1)C(=O)Nc1ccco1

$$$$

  CDD

  0  0  0  0  0  0            999 V2000
M  END
> <Molecule Name>
CVD-0000339

> <SMILES>
Cc1ccncc1-c1ccc(=O)n(c1)-c1cccc(NC(=O)c2ccco2)c1

$$$$

  CDD

  0  0  0  0  0  0            999 V2000
M  END
> <Molecule Name>
CVD-0000338

> <SMILES>
Cc1c(Cl)cncc1-c1ccc(=O)n(CN2CCCC2=O)c1F

$$$$

  CDD

  0  0  0  0  0  0            999 V2000
M  END
> <Molecule Name>
CVD-0000337

> <SMILES>
CCOc1cnc(cc1-c1cc(Cl)cc(c1)C(=O)Nc1ccco1)-c1cnc(Cl)cc1C

$$$$

  CDD

  0  0  0  0  0  0            999 V2000
M  END
> <Molecule Name>
CVD-0000336

> <SMILES>
CCc1cc(Cl)nc(Cl)c1C1=CN(CN2CCCC2=O)[C@@H](C=C1)c1ncc[nH]1

$$$$

  CDD

  0  0  0  0  0  0            999 V2000
M  END
> <Molecule Name>
CVD-0000335

> <SMILES>
CCOc1cnc(cc1-c1cc(Cl)cc(c1)C(=O)Nc1ccco1)-c1c(C)cc(Cl)nc1F

$$$$

  CDD

  0  0  0  0  0  0            999 V2000
M  END
> <Molecule Name>
CVD-0000334

> <SMILES>
CCOc1cnc(cc1-c1cc(Cl)cc(c1)C(=O)Nc1ccco1)-c1c(C)ccnc1F

$$$$

  CDD

  0  0  0  0  0  0            999 V2000
M  END
> <Molecule Name>
CVD-0000333

> <SMILES>
CCOc1cnc(cc1-c1cc(Cl)cc(c1)C(=O)Nc1ccco1)-c1cnc(F)cc1C

$$$$

  CDD

  0  0  0  0  0  0            999 V2000
M  END
> <Molecule Name>
CVD-0000332

> <SMILES>
CCOc1cnc(cc1-c1cc(Cl)cc(c1)C(=O)Nc1ccco1)-c1c(C)cc(F)nc1Cl

$$$$

  CDD

  0  0  0  0  0  0            999 V2000
M  END
> <Molecule Name>
CVD-0000331

> <SMILES>
CCOc1cnc(cc1-c1cc(Cl)cc(c1)C(=O)Nc1ccco1)-c1c(C)cc(F)nc1F

$$$$

  CDD

  0  0  0  0  0  0            999 V2000
M  END
> <Molecule Name>
CVD-0000330

> <SMILES>
CCOc1cnc(cc1-c1cc(Cl)cc(c1)C(=O)Nc1ccco1)-c1cnccc1C

$$$$

  CDD

  0  0  0  0  0  0            999 V2000
M  END
> <Molecule Name>
CVD-0000329

> <SMILES>
CCOc1cnc(cc1-c1cccc(c1)C(=O)Nc1ccco1)-c1cnccc1C

$$$$

  CDD

  0  0  0  0  0  0            999 V2000
M  END
> <Molecule Name>
CVD-0000328

> <SMILES>
CCOc1cnc(cc1-c1cccc(c1)N1CCCC1=O)-c1cnccc1C

$$$$

  CDD

  0  0  0  0  0  0            999 V2000
M  END
> <Molecule Name>
CVD-0000327

> <SMILES>
CCc1cnc(cc1-c1cccc(c1)N1CCCC1=O)-c1cnccc1C

$$$$

  CDD

  0  0  0  0  0  0            999 V2000
M  END
> <Molecule Name>
CVD-0000326

> <SMILES>
Cc1ccncc1-c1ccc(=O)n(c1)-c1cccc(c1)N1CCCC1=O

$$$$

  CDD

  0  0  0  0  0  0            999 V2000
M  END
> <Molecule Name>
CVD-0000325

> <SMILES>
Cc1cc(F)nc(F)c1-c1ccc(=O)n(c1)-c1cccc(c1)N1CCCC1=O

$$$$

  CDD

  0  0  0  0  0  0            999 V2000
M  END
> <Molecule Name>
CVD-0000324

> <SMILES>
CCOc1cc(N(C)C)c2cc(SC)[nH]c2c1Oc1cc(ccn1)-c1cnc[nH]1

$$$$

  CDD

  0  0  0  0  0  0            999 V2000
M  END
> <Molecule Name>
CVD-0000323

> <SMILES>
COc1cc(N(C)C)c2cc(SC)[nH]c2c1Oc1cc(ccn1)-c1cnc[nH]1

$$$$

  CDD

  0  0  0  0  0  0            999 V2000
M  END
> <Molecule Name>
CVD-0000322

> <SMILES>
CSc1cc2c(ccc(Oc3cc(ccn3)-c3cnc[nH]3)c2[nH]1)N(C)C

$$$$

  CDD

  0  0  0  0  0  0            999 V2000
M  END
> <Molecule Name>
CVD-0000321

> <SMILES>
CS(=O)(=O)NCCc1cc(Cl)cc2cc([nH]c12)S(N)(=O)=O

$$$$

  CDD

  0  0  0  0  0  0            999 V2000
M  END
> <Molecule Name>
CVD-0000320

> <SMILES>
CC(=O)NCCc1c[nH]c2c(CCNS(C)(=O)=O)cc(Cl)cc12

$$$$

  CDD

  0  0  0  0  0  0            999 V2000
M  END
> <Molecule Name>
CVD-0000319

> <SMILES>
CC(=O)NCCc1cnc2c(CCNS(C)(=O)=O)cc(Cl)cn12

$$$$

  CDD

  0  0  0  0  0  0            999 V2000
M  END
> <Molecule Name>
CVD-0000318

> <SMILES>
CCNc1ncc(cc1CCNS(C)(=O)=O)C#N

$$$$

  CDD

  0  0  0  0  0  0            999 V2000
M  END
> <Molecule Name>
CVD-0000317

> <SMILES>
CC(=O)N(CCc1ccccc1)[C@H]1CN(CCN1S(=O)(=O)c1cccc(Cl)c1)C(C)=O

$$$$

  CDD

  0  0  0  0  0  0            999 V2000
M  END
> <Molecule Name>
CVD-0000316

> <SMILES>
CC(=O)N1CCN([C@H](C1)NCCc1cc(Cl)cc2cc(C)[nH]c12)S(=O)(=O)c1cccc(Cl)c1

$$$$

  CDD

  0  0  0  0  0  0            999 V2000
M  END
> <Molecule Name>
CVD-0000315

> <SMILES>
CCNc1ncc(cc1CCN[C@H]1CN(CCN1S(=O)(=O)c1cccc(Cl)c1)C(C)=O)C#N

$$$$

  CDD

  0  0  0  0  0  0            999 V2000
M  END
> <Molecule Name>
CVD-0000314

> <SMILES>
CNc1ncccc1CCN[C@H]1CN(CCN1S(=O)(=O)c1cccc(Cl)c1)C(C)=O

$$$$

  CDD

  0  0  0  0  0  0            999 V2000
M  END
> <Molecule Name>
CVD-0000313

> <SMILES>
CS(=O)(=O)NC[C@H](C(=O)Nc1cccnc1)c1ccccc1

$$$$

  CDD

  0  0  0  0  0  0            999 V2000
M  END
> <Molecule Name>
CVD-0000312

> <SMILES>
OC1CCN(C[C@H]2CCCCN2CC(=O)Nc2cccnc2)CC1

$$$$

  CDD

  0  0  0  0  0  0            999 V2000
M  END
> <Molecule Name>
CVD-0000311

> <SMILES>
CS(=O)(=O)NCC[C@H]1CCCCN1CC(=O)Nc1cccnc1

$$$$

  CDD

  0  0  0  0  0  0            999 V2000
M  END
> <Molecule Name>
CVD-0000310

> <SMILES>
CC(=O)N1CCN([C@H](C1)NCCc1ccccc1)S(=O)(=O)c1cccc(Cl)c1

$$$$

  CDD

  0  0  0  0  0  0            999 V2000
M  END
> <Molecule Name>
CVD-0000309

> <SMILES>
C=C(C(=O)Nc1ccccc1)c1cccnc1

$$$$

  CDD

  0  0  0  0  0  0            999 V2000
M  END
> <Molecule Name>
CVD-0000308

> <SMILES>
NC(=O)C1CCN(C\C=C(/C(=O)Nc2ccccc2)c2cccnc2)CC1

$$$$

  CDD

  0  0  0  0  0  0            999 V2000
M  END
> <Molecule Name>
CVD-0000307

> <SMILES>
NC(=O)C1CCN(CC1)C(=O)C(Cl)C(C(=O)Nc1ccccc1)c1cccnc1

$$$$

  CDD

  0  0  0  0  0  0            999 V2000
M  END
> <Molecule Name>
CVD-0000306

> <SMILES>
CC(=O)\C=C\CN1CCC(CC1)C(=O)Nc1ccccc1

$$$$

  CDD

  0  0  0  0  0  0            999 V2000
M  END
> <Molecule Name>
CVD-0000305

> <SMILES>
NC(=O)\C=C\CN1CCC(CC1)C(=O)Nc1ccccc1

$$$$

  CDD

  0  0  0  0  0  0            999 V2000
M  END
> <Molecule Name>
CVD-0000304

> <SMILES>
O=C(Nc1ccccc1)C1CCN(CC1)C(=O)C1OC1c1cccnc1

$$$$

  CDD

  0  0  0  0  0  0            999 V2000
M  END
> <Molecule Name>
CVD-0000303

> <SMILES>
ClC(C(=O)N1CCC(CC1)C(=O)Nc1ccccc1)c1cccnc1

$$$$

  CDD

  0  0  0  0  0  0            999 V2000
M  END
> <Molecule Name>
CVD-0000302

> <SMILES>
ClC(Cc1cccnc1)C(=O)N1CCC(CC1)C(=O)Nc1ccccc1

$$$$

  CDD

  0  0  0  0  0  0            999 V2000
M  END
> <Molecule Name>
CVD-0000301

> <SMILES>
NC(=N)N1C2CC2CC1C(=O)NC(CCS)C(=O)C(N)=O

$$$$

  CDD

  0  0  0  0  0  0            999 V2000
M  END
> <Molecule Name>
CVD-0000300

> <SMILES>
OC1(CCc2ccccc2NC(=O)Nc2cccnc2)CNC1

$$$$

  CDD

  0  0  0  0  0  0            999 V2000
M  END
> <Molecule Name>
CVD-0000299

> <SMILES>
CC(C)[C@H](O)CCc1ccccc1NC(=O)Nc1cccnc1

$$$$

  CDD

  0  0  0  0  0  0            999 V2000
M  END
> <Molecule Name>
CVD-0000298

> <SMILES>
CC(C)(O)COCc1ccccc1NC(=O)Nc1cccnc1

$$$$

  CDD

  0  0  0  0  0  0            999 V2000
M  END
> <Molecule Name>
CVD-0000297

> <SMILES>
CC(=O)NCCOc1ccccc1NC(=O)Nc1cccnc1

$$$$

  CDD

  0  0  0  0  0  0            999 V2000
M  END
> <Molecule Name>
CVD-0000296

> <SMILES>
OC1CN(CCc2ccccc2NC(=O)Nc2cccnc2)C1

$$$$

  CDD

  0  0  0  0  0  0            999 V2000
M  END
> <Molecule Name>
CVD-0000295

> <SMILES>
CC(NC(=O)c1ccccc1OCc1c(C)noc1C)c1nnc2ncccn12

$$$$

  CDD

  0  0  0  0  0  0            999 V2000
M  END
> <Molecule Name>
CVD-0000294

> <SMILES>
CC1CC1n1nnnc1-c1cccc(C)c1NC(=O)CCc1cccnc1

$$$$

  CDD

  0  0  0  0  0  0            999 V2000
M  END
> <Molecule Name>
CVD-0000293

> <SMILES>
CC(NC(=O)C(Cc1ccccc1)NC(=O)c1ccco1)c1ncco1

$$$$

  CDD

  0  0  0  0  0  0            999 V2000
M  END
> <Molecule Name>
CVD-0000292

> <SMILES>
FC(F)COc1cccc(NC(=O)NCc2cccnc2)n1

$$$$

  CDD

  0  0  0  0  0  0            999 V2000
M  END
> <Molecule Name>
CVD-0000291

> <SMILES>
OC(C(=O)Nc1cccc(c1)-c1cc[nH]n1)c1cccnc1

$$$$

  CDD

  0  0  0  0  0  0            999 V2000
M  END
> <Molecule Name>
CVD-0000290

> <SMILES>
O=C(CCc1cncnc1)NC(CNC(=O)C1CC1)c1ccccc1

$$$$

  CDD

  0  0  0  0  0  0            999 V2000
M  END
> <Molecule Name>
CVD-0000289

> <SMILES>
CC(N1CCOCC1)c1cccc(NC(=O)Cc2cnccc2Cl)c1

$$$$

  CDD

  0  0  0  0  0  0            999 V2000
M  END
> <Molecule Name>
CVD-0000288

> <SMILES>
O=C(NCc1ccno1)c1ccccc1OC1CCCCC1

$$$$

  CDD

  0  0  0  0  0  0            999 V2000
M  END
> <Molecule Name>
CVD-0000287

> <SMILES>
Fc1cccc2sc(C(=O)NCc3cnccn3)c(COc3ccccc3)c12

$$$$

  CDD

  0  0  0  0  0  0            999 V2000
M  END
> <Molecule Name>
CVD-0000286

> <SMILES>
CC(NC(=O)Nc1cccc(COC2CCCC(C)C2)c1)c1ccn[nH]1

$$$$

  CDD

  0  0  0  0  0  0            999 V2000
M  END
> <Molecule Name>
CVD-0000285

> <SMILES>
CC(NC(=O)c1ccccc1OCC(N)=O)c1cnn(C)c1

$$$$

  CDD

  0  0  0  0  0  0            999 V2000
M  END
> <Molecule Name>
CVD-0000284

> <SMILES>
O=C(NCc1ccns1)Nc1cccc(CN2CCCC2=O)c1

$$$$

  CDD

  0  0  0  0  0  0            999 V2000
M  END
> <Molecule Name>
CVD-0000283

> <SMILES>
O=C(NCc1cccnn1)Nc1cccc(c1)N1CCC1=O

$$$$

  CDD

  0  0  0  0  0  0            999 V2000
M  END
> <Molecule Name>
CVD-0000282

> <SMILES>
Cn1nncc1CC(=O)NC(c1nc2ccccc2n1C)c1ccccc1

$$$$

  CDD

  0  0  0  0  0  0            999 V2000
M  END
> <Molecule Name>
CVD-0000281

> <SMILES>
CC(=O)N1CCCC1C(=O)NCC(NC(=O)Cn1cncn1)c1ccccc1

$$$$

  CDD

  0  0  0  0  0  0            999 V2000
M  END
> <Molecule Name>
CVD-0000280

> <SMILES>
O=C(NCc1cncs1)Nc1cccc(c1)N1CCOCC1

$$$$

  CDD

  0  0  0  0  0  0            999 V2000
M  END
> <Molecule Name>
CVD-0000279

> <SMILES>
OC(C(=O)Nc1ccccc1NS(=O)(=O)c1ccc(F)cc1)c1cccnc1

$$$$

  CDD

  0  0  0  0  0  0            999 V2000
M  END
> <Molecule Name>
CVD-0000278

> <SMILES>
O=C(NC(Cc1ccccc1)C(=O)N1CCCC1)Nc1ccnnc1

$$$$

  CDD

  0  0  0  0  0  0            999 V2000
M  END
> <Molecule Name>
CVD-0000277

> <SMILES>
CC(OCC1CCCCO1)C(=O)N(CCc1ccccc1)Cc1cccnc1

$$$$

  CDD

  0  0  0  0  0  0            999 V2000
M  END
> <Molecule Name>
CVD-0000276

> <SMILES>
O=C(NCc1cccnn1)Nc1cccc(OCCN2CCOCC2)c1

$$$$

  CDD

  0  0  0  0  0  0            999 V2000
M  END
> <Molecule Name>
CVD-0000275

> <SMILES>
CC(C(=O)Nc1cccc(OC2CC(=O)N2)c1)c1cnccn1

$$$$

  CDD

  0  0  0  0  0  0            999 V2000
M  END
> <Molecule Name>
CVD-0000274

> <SMILES>
Cn1cncc1CNC(=O)Nc1cccc(OCC(F)F)n1

$$$$

  CDD

  0  0  0  0  0  0            999 V2000
M  END
> <Molecule Name>
CVD-0000273

> <SMILES>
CCn1c2ccccc2n(CC(=O)NCc2cnccn2)c1=O

$$$$

  CDD

  0  0  0  0  0  0            999 V2000
M  END
> <Molecule Name>
CVD-0000272

> <SMILES>
O=C(Cc1ccccc1OC1CCOC1)OCc1cnn[nH]1

$$$$

  CDD

  0  0  0  0  0  0            999 V2000
M  END
> <Molecule Name>
CVD-0000271

> <SMILES>
Nc1ncncc1CNC(=O)Nc1ccccc1OCCn1ccnc1

$$$$

  CDD

  0  0  0  0  0  0            999 V2000
M  END
> <Molecule Name>
CVD-0000270

> <SMILES>
O=C(NCc1cnsc1)c1ccccc1OCC#N

$$$$

  CDD

  0  0  0  0  0  0            999 V2000
M  END
> <Molecule Name>
CVD-0000269

> <SMILES>
Cc1ccc(Oc2cccc(NC(=O)NCc3cnnn3C)c2)c(C)c1

$$$$

  CDD

  0  0  0  0  0  0            999 V2000
M  END
> <Molecule Name>
CVD-0000268

> <SMILES>
Cn1cc(CNC(=O)N(CCc2ccccc2)Cc2cccnc2)nn1

$$$$

  CDD

  0  0  0  0  0  0            999 V2000
M  END
> <Molecule Name>
CVD-0000267

> <SMILES>
Cc1noc(CC(NC(=O)NC(C2CC2)c2cncc(Br)c2)c2ccccc2)n1

$$$$

  CDD

  0  0  0  0  0  0            999 V2000
M  END
> <Molecule Name>
CVD-0000266

> <SMILES>
O=C(CCn1ccnn1)NC(CN1CCOCC1)c1ccccc1

$$$$

  CDD

  0  0  0  0  0  0            999 V2000
M  END
> <Molecule Name>
CVD-0000265

> <SMILES>
CC1CC(C)CN(C1)C(=O)c1ccccc1NC(=O)NCc1ccoc1

$$$$

  CDD

  0  0  0  0  0  0            999 V2000
M  END
> <Molecule Name>
CVD-0000264

> <SMILES>
O=C(NCc1noc2ccccc12)c1ccccc1OCC1CC1

$$$$

  CDD

  0  0  0  0  0  0            999 V2000
M  END
> <Molecule Name>
CVD-0000263

> <SMILES>
Clc1ccc(Oc2ccccc2C(=O)NCc2ccno2)c(Cl)c1

$$$$

  CDD

  0  0  0  0  0  0            999 V2000
M  END
> <Molecule Name>
CVD-0000262

> <SMILES>
OCCOc1ncccc1C(=O)NCc1cnn2ccccc12

$$$$

  CDD

  0  0  0  0  0  0            999 V2000
M  END
> <Molecule Name>
CVD-0000261

> <SMILES>
CC1CN(Cc2ccccc2NC(=O)NCc2cnsc2)CC(C)O1

$$$$

  CDD

  0  0  0  0  0  0            999 V2000
M  END
> <Molecule Name>
CVD-0000260

> <SMILES>
O=C(Cc1cncnc1)Nc1cccc(OC2CC(=O)N2)c1

$$$$

  CDD

  0  0  0  0  0  0            999 V2000
M  END
> <Molecule Name>
CVD-0000259

> <SMILES>
CC(Cn1ccnc1)C(=O)NC(Cc1nc(C)no1)c1ccccc1

$$$$

  CDD

  0  0  0  0  0  0            999 V2000
M  END
> <Molecule Name>
CVD-0000258

> <SMILES>
COc1ccccc1C(NC(=O)Cc1cnnn1C)c1noc(C)n1

$$$$

  CDD

  0  0  0  0  0  0            999 V2000
M  END
> <Molecule Name>
CVD-0000257

> <SMILES>
COC(=O)C(Cc1ccccc1)C(C)NC(=O)C(C)n1ccnc1

$$$$

  CDD

  0  0  0  0  0  0            999 V2000
M  END
> <Molecule Name>
CVD-0000256

> <SMILES>
Brc1ncccc1CC(=O)Nc1cccc(OCCn2cncn2)c1

$$$$

  CDD

  0  0  0  0  0  0            999 V2000
M  END
> <Molecule Name>
CVD-0000255

> <SMILES>
OC(CNC(=O)c1ccccc1OC1CCC1)Cn1ccnn1

$$$$

  CDD

  0  0  0  0  0  0            999 V2000
M  END
> <Molecule Name>
CVD-0000254

> <SMILES>
CSCc1nc2ccccc2n1CC(=O)NC1CCOC1c1ccncc1

$$$$

  CDD

  0  0  0  0  0  0            999 V2000
M  END
> <Molecule Name>
CVD-0000253

> <SMILES>
Cc1ncsc1-c1nc2ccccc2n1CC(=O)N(Cc1ncc[nH]1)c1cncc(C)c1

$$$$

  CDD

  0  0  0  0  0  0            999 V2000
M  END
> <Molecule Name>
CVD-0000252

> <SMILES>
CCC(NC(=O)C(C)n1cncn1)c1ccccc1OCC(=O)N1CCCC1

$$$$

  CDD

  0  0  0  0  0  0            999 V2000
M  END
> <Molecule Name>
CVD-0000251

> <SMILES>
O=C(CCc1cnn[nH]1)NC(Cn1cccn1)c1ccccc1

$$$$

  CDD

  0  0  0  0  0  0            999 V2000
M  END
> <Molecule Name>
CVD-0000250

> <SMILES>
Cc1ccccc1CNc1ccccc1NC(=O)C(O)c1cccnc1

$$$$

  CDD

  0  0  0  0  0  0            999 V2000
M  END
> <Molecule Name>
CVD-0000249

> <SMILES>
O=C(NCc1cccnn1)NC(Cc1ccccc1)c1cccs1

$$$$

  CDD

  0  0  0  0  0  0            999 V2000
M  END
> <Molecule Name>
CVD-0000248

> <SMILES>
CC(NC(=O)NC(Cc1nccn1C)c1ccccc1)c1ncco1

$$$$

  CDD

  0  0  0  0  0  0            999 V2000
M  END
> <Molecule Name>
CVD-0000247

> <SMILES>
CCC(NC(=O)NCc1cnccn1)c1ccccc1OCC(=O)N1CCCC1

$$$$

  CDD

  0  0  0  0  0  0            999 V2000
M  END
> <Molecule Name>
CVD-0000246

> <SMILES>
CC(NC(=O)c1ccccc1OC1CCCCC1)c1cnccn1

$$$$

  CDD

  0  0  0  0  0  0            999 V2000
M  END
> <Molecule Name>
CVD-0000245

> <SMILES>
O=C(CCc1cnn[nH]1)NC(CNC(=O)C1CCC1)c1ccccc1

$$$$

  CDD

  0  0  0  0  0  0            999 V2000
M  END
> <Molecule Name>
CVD-0000244

> <SMILES>
CN1CCN(CC1)C(=O)c1ccccc1NC(=O)C(O)c1cccnc1

$$$$

  CDD

  0  0  0  0  0  0            999 V2000
M  END
> <Molecule Name>
CVD-0000243

> <SMILES>
O=C(NCc1cccnn1)Nc1cccc(c1)-c1ncc2CCCCn12

$$$$

  CDD

  0  0  0  0  0  0            999 V2000
M  END
> <Molecule Name>
CVD-0000242

> <SMILES>
COc1cc(CNC(=O)Cc2ncc[nH]2)c2ccccc2n1

$$$$

  CDD

  0  0  0  0  0  0            999 V2000
M  END
> <Molecule Name>
CVD-0000241

> <SMILES>
NC(=O)C1CN(CC(=O)Nc2cnccn2)c2ccccc2C1

$$$$

  CDD

  0  0  0  0  0  0            999 V2000
M  END
> <Molecule Name>
CVD-0000240

> <SMILES>
CC(C(=O)Nc1cccc(NC2CCCC2)c1)c1cnccn1

$$$$

  CDD

  0  0  0  0  0  0            999 V2000
M  END
> <Molecule Name>
CVD-0000239

> <SMILES>
Nc1nnnn1-c1cccc(c1)C(=O)Nc1c(nc2ccccn12)-c1cccnc1

$$$$

  CDD

  0  0  0  0  0  0            999 V2000
M  END
> <Molecule Name>
CVD-0000238

> <SMILES>
O=C(NC(Cc1ccccc1)C(=O)NCc1ccno1)OCc1ccccc1

$$$$

  CDD

  0  0  0  0  0  0            999 V2000
M  END
> <Molecule Name>
CVD-0000237

> <SMILES>
CC1(CC1)C(=O)NCC(NC(=O)CCc1cnn[nH]1)c1ccccc1

$$$$

  CDD

  0  0  0  0  0  0            999 V2000
M  END
> <Molecule Name>
CVD-0000236

> <SMILES>
CC1CC(C)CN(C1)C(=O)c1ccccc1NC(=O)NCc1ccncn1

$$$$

  CDD

  0  0  0  0  0  0            999 V2000
M  END
> <Molecule Name>
CVD-0000235

> <SMILES>
CCc1nnnn1-c1ccccc1NC(=O)C1(CC1)c1cncc(Br)c1

$$$$

  CDD

  0  0  0  0  0  0            999 V2000
M  END
> <Molecule Name>
CVD-0000234

> <SMILES>
Clc1ncccc1CC(=O)Nc1cccc(OCCc2ccccc2)c1

$$$$

  CDD

  0  0  0  0  0  0            999 V2000
M  END
> <Molecule Name>
CVD-0000233

> <SMILES>
Nc1c(cnn1-c1ccccc1NC(=O)Cc1ccn[nH]1)C#N

$$$$

  CDD

  0  0  0  0  0  0            999 V2000
M  END
> <Molecule Name>
CVD-0000232

> <SMILES>
Clc1cccc(-c2nc3ccccc3n2CC(=O)Nc2ccnnc2)c1Cl

$$$$

  CDD

  0  0  0  0  0  0            999 V2000
M  END
> <Molecule Name>
CVD-0000231

> <SMILES>
Cc1ccccc1C(C(=O)NCC(O)Cn1ccnn1)c1ccccc1

$$$$

  CDD

  0  0  0  0  0  0            999 V2000
M  END
> <Molecule Name>
CVD-0000230

> <SMILES>
O=C(Cc1cncnc1)Nc1cccc(CCCc2ccccc2)c1

$$$$

  CDD

  0  0  0  0  0  0            999 V2000
M  END
> <Molecule Name>
CVD-0000229

> <SMILES>
Fc1ccc(F)c(c1)S(=O)(=O)Nc1ccccc1C(=O)NCCNc1cccnn1

$$$$

  CDD

  0  0  0  0  0  0            999 V2000
M  END
> <Molecule Name>
CVD-0000228

> <SMILES>
Cc1ncsc1-c1nc2ccccc2n1CC(=O)Nc1c(nc2ccccn12)-c1cccnc1

$$$$

  CDD

  0  0  0  0  0  0            999 V2000
M  END
> <Molecule Name>
CVD-0000227

> <SMILES>
NC(=O)[C@@H](F)CCc1cccc(NC(=O)Nc2cccnc2)c1

$$$$

  CDD

  0  0  0  0  0  0            999 V2000
M  END
> <Molecule Name>
CVD-0000226

> <SMILES>
CN(CCc1cccc(NC(=O)Nc2cccnc2)c1)C(N)=O

$$$$

  CDD

  0  0  0  0  0  0            999 V2000
M  END
> <Molecule Name>
CVD-0000225

> <SMILES>
O=C(Nc1cccnc1)Nc1cccc(CCC2(CCC2)C#N)c1

$$$$

  CDD

  0  0  0  0  0  0            999 V2000
M  END
> <Molecule Name>
CVD-0000224

> <SMILES>
CCC[C@](C)(O)CCc1cccc(NC(=O)Nc2cccnc2)c1

$$$$

  CDD

  0  0  0  0  0  0            999 V2000
M  END
> <Molecule Name>
CVD-0000223

> <SMILES>
Cc1ncc(CCc2cccc(NC(=O)Nc3cccnc3)c2)[nH]1

$$$$

  CDD

  0  0  0  0  0  0            999 V2000
M  END
> <Molecule Name>
CVD-0000222

> <SMILES>
OCC1(CCc2cccc(NC(=O)Nc3cccnc3)c2)CC1

$$$$

  CDD

  0  0  0  0  0  0            999 V2000
M  END
> <Molecule Name>
CVD-0000221

> <SMILES>
O=C(Nc1cccnc1)Nc1cccc(CCCc2ccc[nH]2)c1

$$$$

  CDD

  0  0  0  0  0  0            999 V2000
M  END
> <Molecule Name>
CVD-0000220

> <SMILES>
C[C@]1(CCc2cccc(NC(=O)Nc3cccnc3)c2)NC[C@@H]1O

$$$$

  CDD

  0  0  0  0  0  0            999 V2000
M  END
> <Molecule Name>
CVD-0000219

> <SMILES>
NC1(CC1)[C@H](O)CCc1cccc(NC(=O)Nc2cccnc2)c1

$$$$

  CDD

  0  0  0  0  0  0            999 V2000
M  END
> <Molecule Name>
CVD-0000218

> <SMILES>
CN1Cc2cc(C3=CC(=O)CO3)c(-c3coc4ncccc34)c(=O)n2CC1C1CCNC(=O)C1

$$$$

  CDD

  0  0  0  0  0  0            999 V2000
M  END
> <Molecule Name>
CVD-0000217

> <SMILES>
CN1CCn2c(C1)cc(C1=CC(=O)CO1)c(-c1coc3ncccc13)c2=O

$$$$

  CDD

  0  0  0  0  0  0            999 V2000
M  END
> <Molecule Name>
CVD-0000216

> <SMILES>
Oc1ccc(O)c(CN2CCN(CC(C2)c2cc(O)ccc2O)C(Cl)=O)c1

$$$$

  CDD

  0  0  0  0  0  0            999 V2000
M  END
> <Molecule Name>
CVD-0000215

> <SMILES>
Oc1ccc(O)c(c1)C1CN(Cc2cccc(Cl)c2)CCN(C1)C(Cl)=O

$$$$

  CDD

  0  0  0  0  0  0            999 V2000
M  END
> <Molecule Name>
CVD-0000214

> <SMILES>
NC(=O)c1ccc2N=C(NC(=O)CCl)c3cc(Cl)ccc3Sc2c1

$$$$

  CDD

  0  0  0  0  0  0            999 V2000
M  END
> <Molecule Name>
CVD-0000213

> <SMILES>
OC(=O)c1ccc2Sc3ccc(Cl)cc3C(NC(=O)CCl)=Nc2c1

$$$$

  CDD

  0  0  0  0  0  0            999 V2000
M  END
> <Molecule Name>
CVD-0000212

> <SMILES>
ClCC(=O)NC1=Nc2ccccc2Sc2ccc(Cl)cc12

$$$$

  CDD

  0  0  0  0  0  0            999 V2000
M  END
> <Molecule Name>
CVD-0000211

> <SMILES>
Oc1ccc(O)c(CN2CCN(CC(C2)c2cc(O)ccc2O)C(=O)CCl)c1

$$$$

  CDD

  0  0  0  0  0  0            999 V2000
M  END
> <Molecule Name>
CVD-0000210

> <SMILES>
Oc1ccc(O)c(c1)C1CN(Cc2cccc(Cl)c2)CCN(C1)C(=O)CCl

$$$$

  CDD

  0  0  0  0  0  0            999 V2000
M  END
> <Molecule Name>
CVD-0000209

> <SMILES>
O=C(\C=C/C1NCC(C=C1)N1CCCOCC1)c1ccncc1

$$$$

  CDD

  0  0  0  0  0  0            999 V2000
M  END
> <Molecule Name>
CVD-0000208

> <SMILES>
COc1ccc2C(CN=Cc2c1)[C@H](C)[C@H](O)N(C=C)c1cnccc1C

$$$$

  CDD

  0  0  0  0  0  0            999 V2000
M  END
> <Molecule Name>
CVD-0000207

> <SMILES>
Fc1ccc(Oc2nc(nc3ccccc23)-c2cccnc2)c(Br)c1

$$$$

  CDD

  0  0  0  0  0  0            999 V2000
M  END
> <Molecule Name>
CVD-0000206

> <SMILES>
Cc1nc(cs1)C1Nc2ccccc2C(=O)N1Cc1cccnc1

$$$$

  CDD

  0  0  0  0  0  0            999 V2000
M  END
> <Molecule Name>
CVD-0000205

> <SMILES>
Cc1ccc(Oc2nc(nc3ccccc23)-c2cccnc2)cc1C

$$$$

  CDD

  0  0  0  0  0  0            999 V2000
M  END
> <Molecule Name>
CVD-0000204

> <SMILES>
Cc1ccc(cc1)-c1n[nH]cc1CNCc1cccnc1

$$$$

  CDD

  0  0  0  0  0  0            999 V2000
M  END
> <Molecule Name>
CVD-0000203

> <SMILES>
Cc1cc2ncn(-c3nc(nc4ccccc34)-c3cccnc3)c2cc1C

$$$$

  CDD

  0  0  0  0  0  0            999 V2000
M  END
> <Molecule Name>
CVD-0000202

> <SMILES>
COc1ccc2[nH]cc(C3CCN(CC3)C(C)c3cnccn3)c2c1

$$$$

  CDD

  0  0  0  0  0  0            999 V2000
M  END
> <Molecule Name>
CVD-0000201

> <SMILES>
COc1ccc2C(CNc3cn[nH]c(=O)c3Cl)CCCc2c1

$$$$

  CDD

  0  0  0  0  0  0            999 V2000
M  END
> <Molecule Name>
CVD-0000200

> <SMILES>
COc1ccc(cc1)C1CC(C)N(C1)S(=O)(=O)c1cccnc1

$$$$

  CDD

  0  0  0  0  0  0            999 V2000
M  END
> <Molecule Name>
CVD-0000199

> <SMILES>
C(CC12CC3CC(CC(C3)C1)C2)Sc1nc2ncccn2n1

$$$$

  CDD

  0  0  0  0  0  0            999 V2000
M  END
> <Molecule Name>
CVD-0000198

> <SMILES>
CO[C@@H]1C[C@H](N(C1)S(=O)(=O)c1cccnc1)c1nc(C)c(C)[nH]1

$$$$

  CDD

  0  0  0  0  0  0            999 V2000
M  END
> <Molecule Name>
CVD-0000197

> <SMILES>
O(c1ccc2ccccc2c1)c1nc(nc2ccccc12)-c1cccnc1

$$$$

  CDD

  0  0  0  0  0  0            999 V2000
M  END
> <Molecule Name>
CVD-0000196

> <SMILES>
O=S1(=O)CCC(C1)N1CCN(CC1)c1nc(nc2ccccc12)-c1cccnc1

$$$$

  CDD

  0  0  0  0  0  0            999 V2000
M  END
> <Molecule Name>
CVD-0000195

> <SMILES>
Cc1nn(c(C)c1CC(=O)NCc1ccc(Cl)cc1)-c1ccc(cn1)C(F)(F)F

$$$$

  CDD

  0  0  0  0  0  0            999 V2000
M  END
> <Molecule Name>
CVD-0000194

> <SMILES>
O=C(NCCC(c1ccccc1)c1ccccc1)c1cnccn1

$$$$

  CDD

  0  0  0  0  0  0            999 V2000
M  END
> <Molecule Name>
CVD-0000193

> <SMILES>
CC(NC(=O)Cc1c(C)nn(c1C)-c1ccc(cn1)C(F)(F)F)c1cccc(F)c1

$$$$

  CDD

  0  0  0  0  0  0            999 V2000
M  END
> <Molecule Name>
CVD-0000192

> <SMILES>
O=C(CC(c1ccccc1)c1ccccc1)Nc1cccnc1

$$$$

  CDD

  0  0  0  0  0  0            999 V2000
M  END
> <Molecule Name>
CVD-0000191

> <SMILES>
Fc1ccc(Oc2nc(nc3ccccc23)-c2cccnc2)c(Cl)c1

$$$$

  CDD

  0  0  0  0  0  0            999 V2000
M  END
> <Molecule Name>
CVD-0000190

> <SMILES>
CO[C@@H]1C[C@@H](COc2cccnc2)N(C1)c1ncccn1

$$$$

  CDD

  0  0  0  0  0  0            999 V2000
M  END
> <Molecule Name>
CVD-0000189

> <SMILES>
ClCC(=O)N1CCN(CCS(=N)(=O)c2ccnc3cc(Cl)ccc23)CC1

$$$$

  CDD

  0  0  0  0  0  0            999 V2000
M  END
> <Molecule Name>
CVD-0000188

> <SMILES>
COc1ccccc1-n1cc(CN2CCN(CC2)C(=O)CCl)nn1

$$$$

  CDD

  0  0  0  0  0  0            999 V2000
M  END
> <Molecule Name>
CVD-0000187

> <SMILES>
COc1cccc(c1)-n1cc(CN2CCN(CC2)C(=O)CCl)nn1

$$$$

  CDD

  0  0  0  0  0  0            999 V2000
M  END
> <Molecule Name>
CVD-0000186

> <SMILES>
COc1ccc(cc1)-n1cc(CN2CCN(CC2)C(=O)CCl)nn1

$$$$

  CDD

  0  0  0  0  0  0            999 V2000
M  END
> <Molecule Name>
CVD-0000185

> <SMILES>
Fc1ccc(CN2CCN(CC2)C(=O)C=C)cc1

$$$$

  CDD

  0  0  0  0  0  0            999 V2000
M  END
> <Molecule Name>
CVD-0000184

> <SMILES>
C=CC(=O)N1CCCN(Cc2ccccc2)CC1

$$$$

  CDD

  0  0  0  0  0  0            999 V2000
M  END
> <Molecule Name>
CVD-0000183

> <SMILES>
Fc1cc(NCc2ccc3[nH]cnc3c2)c2[nH]cc(CCNC(=O)C=C)c2c1

$$$$

  CDD

  0  0  0  0  0  0            999 V2000
M  END
> <Molecule Name>
CVD-0000182

> <SMILES>
CN(C)C\C=C\C(=O)NCc1c[nH]c2ccccc12

$$$$

  CDD

  0  0  0  0  0  0            999 V2000
M  END
> <Molecule Name>
CVD-0000181

> <SMILES>
CN(C)C\C=C\C(=O)Nc1c[nH]c2ccccc12

$$$$

  CDD

  0  0  0  0  0  0            999 V2000
M  END
> <Molecule Name>
CVD-0000180

> <SMILES>
CN(C)Cc1cc(-c2ccccc2)n(c1)S(=O)(=O)c1cccnc1

$$$$

  CDD

  0  0  0  0  0  0            999 V2000
M  END
> <Molecule Name>
CVD-0000179

> <SMILES>
CCC(=O)NCCC1CCc2ccc3CCCc3c12

$$$$

  CDD

  0  0  0  0  0  0            999 V2000
M  END
> <Molecule Name>
CVD-0000178

> <SMILES>
CC(=O)NCCC1CCc2ccc3CCCc3c12

$$$$

  CDD

  0  0  0  0  0  0            999 V2000
M  END
> <Molecule Name>
CVD-0000177

> <SMILES>
CC(=O)NCCc1cccc2nccnc12

$$$$

  CDD

  0  0  0  0  0  0            999 V2000
M  END
> <Molecule Name>
CVD-0000176

> <SMILES>
CCC(=O)NCC[C@@H]1CCc2ccccc12

$$$$

  CDD

  0  0  0  0  0  0            999 V2000
M  END
> <Molecule Name>
CVD-0000175

> <SMILES>
CC(=O)N1CCN(CC1)S(=O)(=O)c1cccc(c1)-c1ccccc1

$$$$

  CDD

  0  0  0  0  0  0            999 V2000
M  END
> <Molecule Name>
CVD-0000174

> <SMILES>
COc1ccc(cc1)-c1cccc(c1)S(=O)(=O)N1CCN(CC1)C(C)=O

$$$$

  CDD

  0  0  0  0  0  0            999 V2000
M  END
> <Molecule Name>
CVD-0000173

> <SMILES>
CCC(=O)NC[C@@H]1C[C@H]1c1cccc2ccccc12

$$$$

  CDD

  0  0  0  0  0  0            999 V2000
M  END
> <Molecule Name>
CVD-0000172

> <SMILES>
CCC(=O)NC[C@@H]1C[C@H]1c1ccccc1

$$$$

  CDD

  0  0  0  0  0  0            999 V2000
M  END
> <Molecule Name>
CVD-0000171

> <SMILES>
CN(C)CCc1c[nH]c2ccc(cc12)S(=O)(=O)N(C)C

$$$$

  CDD

  0  0  0  0  0  0            999 V2000
M  END
> <Molecule Name>
CVD-0000170

> <SMILES>
CN(C)CCc1c[nH]c2ccc(cc12)S(N)(=O)=O

$$$$

  CDD

  0  0  0  0  0  0            999 V2000
M  END
> <Molecule Name>
CVD-0000169

> <SMILES>
CN(C)CCc1c[nH]c2ccc(CS(=O)(=O)N(C)C)cc12

$$$$

  CDD

  0  0  0  0  0  0            999 V2000
M  END
> <Molecule Name>
CVD-0000168

> <SMILES>
CN(C)CCc1c[nH]c2ccc(CS(N)(=O)=O)cc12

$$$$

  CDD

  0  0  0  0  0  0            999 V2000
M  END
> <Molecule Name>
CVD-0000167

> <SMILES>
CNS(=O)(=O)Cc1ccc2[nH]cc(CCN(C)C)c2c1

$$$$

  CDD

  0  0  0  0  0  0            999 V2000
M  END
> <Molecule Name>
CVD-0000166

> <SMILES>
FC(F)(F)Oc1ccc(cc1)C(=O)On1nnc2ccccc12

$$$$

  CDD

  0  0  0  0  0  0            999 V2000
M  END
> <Molecule Name>
CVD-0000165

> <SMILES>
FC(F)(F)Oc1ccc(cc1)C(=O)Cn1nnc2ccccc12

$$$$

  CDD

  0  0  0  0  0  0            999 V2000
M  END
> <Molecule Name>
CVD-0000164

> <SMILES>
CCP(CC)(CC)=[Au]SC1CCCCC1

$$$$

  CDD

  0  0  0  0  0  0            999 V2000
M  END
> <Molecule Name>
CVD-0000163

> <SMILES>
CCOC(=O)C(=O)Nc1cc(OC)c(OC)c(OC)c1

$$$$

  CDD

  0  0  0  0  0  0            999 V2000
M  END
> <Molecule Name>
CVD-0000162

> <SMILES>
COc1cc(NC(=O)C(=O)Nc2cc(OC)c(OC)c(OC)c2)cc(OC)c1OC

$$$$

  CDD

  0  0  0  0  0  0            999 V2000
M  END
> <Molecule Name>
CVD-0000161

> <SMILES>
Oc1cc(NC(=O)C(=O)Nc2cc(O)c(O)c(O)c2)cc(O)c1O

$$$$

  CDD

  0  0  0  0  0  0            999 V2000
M  END
> <Molecule Name>
CVD-0000160

> <SMILES>
CS(=O)(=O)NCCc1cc(ccc1NC(=O)N1CCOCC1)C#N

$$$$

  CDD

  0  0  0  0  0  0            999 V2000
M  END
> <Molecule Name>
CVD-0000159

> <SMILES>
CCNc1ccc(cc1CCNS(C)(=O)=O)C#N

$$$$

  CDD

  0  0  0  0  0  0            999 V2000
M  END
> <Molecule Name>
CVD-0000158

> <SMILES>
CS(=O)(=O)NCCc1ccc2ncsc2c1

$$$$

  CDD

  0  0  0  0  0  0            999 V2000
M  END
> <Molecule Name>
CVD-0000157

> <SMILES>
CS(=O)(=O)NCCc1ccc2nc(N)sc2c1

$$$$

  CDD

  0  0  0  0  0  0            999 V2000
M  END
> <Molecule Name>
CVD-0000156

> <SMILES>
CS(=O)(=O)NCCc1cscn1

$$$$

  CDD

  0  0  0  0  0  0            999 V2000
M  END
> <Molecule Name>
CVD-0000155

> <SMILES>
CC(=O)NCCc1ccccc1

$$$$

  CDD

  0  0  0  0  0  0            999 V2000
M  END
> <Molecule Name>
CVD-0000154

> <SMILES>
CS(=O)(=O)NCCc1ccccc1O

$$$$

  CDD

  0  0  0  0  0  0            999 V2000
M  END
> <Molecule Name>
CVD-0000153

> <SMILES>
CS(=O)(=O)NCCc1cccc(O)c1

$$$$

  CDD

  0  0  0  0  0  0            999 V2000
M  END
> <Molecule Name>
CVD-0000152

> <SMILES>
CS(=O)(=O)NCCc1cccnc1

$$$$

  CDD

  0  0  0  0  0  0            999 V2000
M  END
> <Molecule Name>
CVD-0000151

> <SMILES>
OC1CCN(CC1)c1ccc(o1)C(=O)Nc1cccnc1

$$$$

  CDD

  0  0  0  0  0  0            999 V2000
M  END
> <Molecule Name>
CVD-0000150

> <SMILES>
CS(=O)(=O)Cc1ccc(o1)C(=O)Nc1cccnc1

$$$$

  CDD

  0  0  0  0  0  0            999 V2000
M  END
> <Molecule Name>
CVD-0000149

> <SMILES>
CCNc1ccc(C#N)c(NC(=O)Cc2c[nH]c3ncccc23)c1

$$$$

  CDD

  0  0  0  0  0  0            999 V2000
M  END
> <Molecule Name>
CVD-0000148

> <SMILES>
O=C(Cc1cccnc1)Nc1ccccc1C#N

$$$$

  CDD

  0  0  0  0  0  0            999 V2000
M  END
> <Molecule Name>
CVD-0000147

> <SMILES>
O=C(Cc1c[nH]c2ncccc12)Nc1ccccc1C#N

$$$$

  CDD

  0  0  0  0  0  0            999 V2000
M  END
> <Molecule Name>
CVD-0000146

> <SMILES>
O=C(NCc1cccnc1)[C@H]1CCC[C@H]1c1ccsc1

$$$$

  CDD

  0  0  0  0  0  0            999 V2000
M  END
> <Molecule Name>
CVD-0000145

> <SMILES>
O=C(NCc1ccccn1)[C@H]1CCC[C@H]1c1ccsc1

$$$$

  CDD

  0  0  0  0  0  0            999 V2000
M  END
> <Molecule Name>
CVD-0000144

> <SMILES>
O=C(Nc1cncnc1)[C@H]1CCC[C@H]1c1ccsc1

$$$$

  CDD

  0  0  0  0  0  0            999 V2000
M  END
> <Molecule Name>
CVD-0000143

> <SMILES>
COCCNC(=O)[C@H]1CCC[C@H]1c1ccsc1

$$$$

  CDD

  0  0  0  0  0  0            999 V2000
M  END
> <Molecule Name>
CVD-0000142

> <SMILES>
CNC(=O)[C@H]1CCC[C@H]1c1ccsc1

$$$$

  CDD

  0  0  0  0  0  0            999 V2000
M  END
> <Molecule Name>
CVD-0000141

> <SMILES>
NC(=O)[C@H]1CN(Cc2ccncc2)C[C@H]1c1ccsc1

$$$$

  CDD

  0  0  0  0  0  0            999 V2000
M  END
> <Molecule Name>
CVD-0000140

> <SMILES>
COc1cccc(NC(=O)Nc2cccc(c2)C#N)c1

$$$$

  CDD

  0  0  0  0  0  0            999 V2000
M  END
> <Molecule Name>
CVD-0000139

> <SMILES>
O=C(Cc1cccc(c1)C#N)Nc1cccnc1

$$$$

  CDD

  0  0  0  0  0  0            999 V2000
M  END
> <Molecule Name>
CVD-0000138

> <SMILES>
O=C(Nc1cccnc1)Nc1cccc(c1)C#N

$$$$

  CDD

  0  0  0  0  0  0            999 V2000
M  END
> <Molecule Name>
CVD-0000137

> <SMILES>
O=C(Nc1ccc(cc1)C#N)Nc1cccnc1

$$$$

  CDD

  0  0  0  0  0  0            999 V2000
M  END
> <Molecule Name>
CVD-0000136

> <SMILES>
CCNc1ccc(cn1)-c1cnco1

$$$$

  CDD

  0  0  0  0  0  0            999 V2000
M  END
> <Molecule Name>
CVD-0000135

> <SMILES>
CCNc1ccc(cn1)-c1cccc(=O)[nH]1

$$$$

  CDD

  0  0  0  0  0  0            999 V2000
M  END
> <Molecule Name>
CVD-0000134

> <SMILES>
CN1CCN(CC1)C(O)Cc1cncnc1

$$$$

  CDD

  0  0  0  0  0  0            999 V2000
M  END
> <Molecule Name>
CVD-0000133

> <SMILES>
CS(O)(O)NCCC(C(O)Nc1ccccn1)c1ccccc1

$$$$

  CDD

  0  0  0  0  0  0            999 V2000
M  END
> <Molecule Name>
CVD-0000132

> <SMILES>
NC(=N)CC(\C=C\N(C1CCCCC1)C(=O)NC1CCCN=C1)c1ccccc1

$$$$

  CDD

  0  0  0  0  0  0            999 V2000
M  END
> <Molecule Name>
CVD-0000131

> <SMILES>
CC1CCNCC1NC(O)C(CCNS(C)(O)O)C1CCCCC1

$$$$

  CDD

  0  0  0  0  0  0            999 V2000
M  END
> <Molecule Name>
CVD-0000130

> <SMILES>
CN1CCN(CC1)C(O)CC1CNCNC1

$$$$

  CDD

  0  0  0  0  0  0            999 V2000
M  END
> <Molecule Name>
CVD-0000129

> <SMILES>
CS(=O)(=O)N(CN(C1CCCCC1)C(=O)NC1CCCN=C1)C1C=CC=C1

$$$$

  CDD

  0  0  0  0  0  0            999 V2000
M  END
> <Molecule Name>
CVD-0000128

> <SMILES>
CS(=O)(=O)NCCC(C(O)Nc1ccccn1)c1ccccc1

$$$$

  CDD

  0  0  0  0  0  0            999 V2000
M  END
> <Molecule Name>
CVD-0000127

> <SMILES>
NC(=N)CC(\C=C\N(C1C=CC=C1)C(=O)NC1CCCN=C1)C1C=CC=C1

$$$$

  CDD

  0  0  0  0  0  0            999 V2000
M  END
> <Molecule Name>
CVD-0000126

> <SMILES>
COC(=O)c1ccc(cc1CCCCCCCS(O)(O)N1CCN(CC1)C(C)=O)S(N)(=O)=O

$$$$

  CDD

  0  0  0  0  0  0            999 V2000
M  END
> <Molecule Name>
CVD-0000125

> <SMILES>
FCc1ccccc1Cc1cccc(CS)c1

$$$$

  CDD

  0  0  0  0  0  0            999 V2000
M  END
> <Molecule Name>
CVD-0000124

> <SMILES>
C[C@@H](c1cccc(C)c1)c1cc(CN)c(CC(O)=O)cc1C

$$$$

  CDD

  0  0  0  0  0  0            999 V2000
M  END
> <Molecule Name>
CVD-0000123

> <SMILES>
CCC[C@](C)(CC(O)=O)Cc1c[nH]c2ccc(C)cc12

$$$$

  CDD

  0  0  0  0  0  0            999 V2000
M  END
> <Molecule Name>
CVD-0000122

> <SMILES>
NS(=O)(=O)c1ccc2c(cccc2c1)N1[Se]C2C=CC=CC2C1=O

$$$$

  CDD

  0  0  0  0  0  0            999 V2000
M  END
> <Molecule Name>
CVD-0000121

> <SMILES>
O=C1C2C=CC=CC2[Se]N1c1ccc2ccccc2c1

$$$$

  CDD

  0  0  0  0  0  0            999 V2000
M  END
> <Molecule Name>
CVD-0000120

> <SMILES>
O=C1C2C=CC=CC2[Se]N1c1cccc2ccccc12

$$$$

  CDD

  0  0  0  0  0  0            999 V2000
M  END
> <Molecule Name>
CVD-0000119

> <SMILES>
CC(C)(CO)N1[Se]C2C=CC=CC2C1=O

$$$$

  CDD

  0  0  0  0  0  0            999 V2000
M  END
> <Molecule Name>
CVD-0000118

> <SMILES>
OCCN1[Se]C2C=CC=CC2C1=O

$$$$

  CDD

  0  0  0  0  0  0            999 V2000
M  END
> <Molecule Name>
CVD-0000117

> <SMILES>
NC(=O)c1ccc(cc1)N1[Se]C2C=CC=CC2C1=O

$$$$

  CDD

  0  0  0  0  0  0            999 V2000
M  END
> <Molecule Name>
CVD-0000116

> <SMILES>
NC(=O)c1cccc(c1)N1[Se]C2C=CC=CC2C1=O

$$$$

  CDD

  0  0  0  0  0  0            999 V2000
M  END
> <Molecule Name>
CVD-0000115

> <SMILES>
Fc1ccc(cc1)N1[Se]C2C=CC=CC2C1=O

$$$$

  CDD

  0  0  0  0  0  0            999 V2000
M  END
> <Molecule Name>
CVD-0000114

> <SMILES>
NS(=O)(=O)c1cccc(c1)N1[Se]C2C=CC=CC2C1=O

$$$$

  CDD

  0  0  0  0  0  0            999 V2000
M  END
> <Molecule Name>
CVD-0000113

> <SMILES>
NS(=O)(=O)c1ccc(cc1)N1[Se]C2C=CC=CC2C1=O

$$$$

  CDD

  0  0  0  0  0  0            999 V2000
M  END
> <Molecule Name>
CVD-0000112

> <SMILES>
NS(=O)(=O)c1ccc2ccc(cc2c1)N1[Se]C2C=CC=CC2C1=O

$$$$

  CDD

  0  0  0  0  0  0            999 V2000
M  END
> <Molecule Name>
CVD-0000111

> <SMILES>
Oc1cc(O)cc(c1)N1[Se]C2C=CC=CC2C1=O

$$$$

  CDD

  0  0  0  0  0  0            999 V2000
M  END
> <Molecule Name>
CVD-0000110

> <SMILES>
Fc1cccc(c1)N1[Se]C2C=CC=CC2C1=O

$$$$

  CDD

  0  0  0  0  0  0            999 V2000
M  END
> <Molecule Name>
CVD-0000109

> <SMILES>
Oc1ccc(cc1O)N1[Se]C2C=CC=CC2C1=O

$$$$

  CDD

  0  0  0  0  0  0            999 V2000
M  END
> <Molecule Name>
CVD-0000108

> <SMILES>
Oc1ccc(cc1)N1[Se]C2C=CC=CC2C1=O

$$$$

  CDD

  0  0  0  0  0  0            999 V2000
M  END
> <Molecule Name>
CVD-0000107

> <SMILES>
Oc1cccc(c1)N1[Se]C2C=CC=CC2C1=O

$$$$

  CDD

  0  0  0  0  0  0            999 V2000
M  END
> <Molecule Name>
CVD-0000106

> <SMILES>
C[C@H](C(=O)\N=C1/C=C(N=N1)C1CC1)c1ccc(cc1)N1CCNC1=O

$$$$

  CDD

  0  0  0  0  0  0            999 V2000
M  END
> <Molecule Name>
CVD-0000105

> <SMILES>
Clc1ccc(Cn2c(CN3CCCC3)nc3ccccc23)cc1

$$$$

  CDD

  0  0  0  0  0  0            999 V2000
M  END
> <Molecule Name>
CVD-0000104

> <SMILES>
NNC(=O)c1ccc2ccc(O)cc2c1

$$$$

  CDD

  0  0  0  0  0  0            999 V2000
M  END
> <Molecule Name>
CVD-0000103

> <SMILES>
COc1ccc2nccc(C(=O)NN)c2c1

$$$$

  CDD

  0  0  0  0  0  0            999 V2000
M  END
> <Molecule Name>
CVD-0000102

> <SMILES>
CCCN\C=C\NC(=O)N(CNC(=O)C1CCCCC1)Cc1cc(C)on1

$$$$

  CDD

  0  0  0  0  0  0            999 V2000
M  END
> <Molecule Name>
CVD-0000101

> <SMILES>
CCC\C=C\NC(=O)N(CNC(=O)C1CCCCC1)Cc1cc(C)on1

$$$$

  CDD

  0  0  0  0  0  0            999 V2000
M  END
> <Molecule Name>
CVD-0000100

> <SMILES>
CC(C)C\C=C\NC(=O)N(CNC(=O)C1CCCCC1)Cc1cc(C)on1

$$$$

  CDD

  0  0  0  0  0  0            999 V2000
M  END
> <Molecule Name>
CVD-0000099

> <SMILES>
CCO\C=C\NC(=O)N(CNC(=O)C1CCCCC1)Cc1cc(C)on1

$$$$

  CDD

  0  0  0  0  0  0            999 V2000
M  END
> <Molecule Name>
CVD-0000098

> <SMILES>
Cc1cc(CN(CNC(=O)C2CCCCC2)C(=O)N[C@H]2C[C@@H]2NCC=C)no1

$$$$

  CDD

  0  0  0  0  0  0            999 V2000
M  END
> <Molecule Name>
CVD-0000097

> <SMILES>
Cc1cc(CN(CNS(=O)(=O)C2CCCCC2)C(=O)N[C@H]2C[C@@H]2NCC=C)no1

$$$$

  CDD

  0  0  0  0  0  0            999 V2000
M  END
> <Molecule Name>
CVD-0000096

> <SMILES>
CCOCC1CN1CC(=O)N(CNS(=O)(=O)C1CCCCC1)Cc1cc(C)on1

$$$$

  CDD

  0  0  0  0  0  0            999 V2000
M  END
> <Molecule Name>
CVD-0000095

> <SMILES>
Cc1cc(CN(CNS(=O)(=O)C2CCCCC2)C(=O)CN2CC2COC=C)no1

$$$$

  CDD

  0  0  0  0  0  0            999 V2000
M  END
> <Molecule Name>
CVD-0000094

> <SMILES>
Cc1cc(CN(CCS(=O)(=O)C2CCCCC2)C(=O)N[C@H]2C[C@@H]2CCCCl)no1

$$$$

  CDD

  0  0  0  0  0  0            999 V2000
M  END
> <Molecule Name>
CVD-0000093

> <SMILES>
CCCNC(=O)C(C)NC(=O)N(C)Cc1csc(C)n1

$$$$

  CDD

  0  0  0  0  0  0            999 V2000
M  END
> <Molecule Name>
CVD-0000092

> <SMILES>
CCCC(C)NC(=O)COc1ccccc1

$$$$

  CDD

  0  0  0  0  0  0            999 V2000
M  END
> <Molecule Name>
CVD-0000091

> <SMILES>
CCCCCC(C)NC(=O)COc1ccccc1

$$$$

  CDD

  0  0  0  0  0  0            999 V2000
M  END
> <Molecule Name>
CVD-0000090

> <SMILES>
CCCC(=O)NC(CC)Cc1ccccc1

$$$$

  CDD

  0  0  0  0  0  0            999 V2000
M  END
> <Molecule Name>
CVD-0000089

> <SMILES>
CCC(C)NC(=O)COc1c(C)cccc1C

$$$$

  CDD

  0  0  0  0  0  0            999 V2000
M  END
> <Molecule Name>
CVD-0000088

> <SMILES>
O=C(COc1ccccc1)NCCc1ccccc1

$$$$

  CDD

  0  0  0  0  0  0            999 V2000
M  END
> <Molecule Name>
CVD-0000087

> <SMILES>
Cc1cccc(C)c1OCC(=O)NCCc1ccccc1

$$$$

  CDD

  0  0  0  0  0  0            999 V2000
M  END
> <Molecule Name>
CVD-0000086

> <SMILES>
CC(C)[C@H](NC(=O)N(C)Cc1csc(n1)C(C)C)C(=O)N[C@H](C[C@H](O)[C@H](Cc1ccccc1)NC(=O)OCc1cncs1)Cc1ccccc1

$$$$

  CDD

  0  0  0  0  0  0            999 V2000
M  END
> <Molecule Name>
CVD-0000085

> <SMILES>
CC(C)[C@H](N1CCCNC1=O)C(=O)N[C@H](C[C@H](O)[C@H](Cc1ccccc1)NC(=O)COc1c(C)cccc1C)Cc1ccccc1

$$$$

  CDD

  0  0  0  0  0  0            999 V2000
M  END
> <Molecule Name>
CVD-0000084

> <SMILES>
O=C(CC1CCCCC1)Nc1cccnc1

$$$$

  CDD

  0  0  0  0  0  0            999 V2000
M  END
> <Molecule Name>
CVD-0000083

> <SMILES>
O=C(NC1CCCCC1)Nc1cccnc1

$$$$

  CDD

  0  0  0  0  0  0            999 V2000
M  END
> <Molecule Name>
CVD-0000082

> <SMILES>
Cc1ccncc1NC(=O)NC1CCCCC1

$$$$

  CDD

  0  0  0  0  0  0            999 V2000
M  END
> <Molecule Name>
CVD-0000081

> <SMILES>
Cc1ccncc1NC(=O)CC1CCCCC1

$$$$

  CDD

  0  0  0  0  0  0            999 V2000
M  END
> <Molecule Name>
CVD-0000080

> <SMILES>
Cc1nnc(CC(=O)Nc2cccnc2)s1

$$$$

  CDD

  0  0  0  0  0  0            999 V2000
M  END
> <Molecule Name>
CVD-0000079

> <SMILES>
Cc1nnc(NC(=O)Nc2cccnc2)s1

$$$$

  CDD

  0  0  0  0  0  0            999 V2000
M  END
> <Molecule Name>
CVD-0000078

> <SMILES>
Cc1nnc(CC(=O)Nc2cnccc2C)s1

$$$$

  CDD

  0  0  0  0  0  0            999 V2000
M  END
> <Molecule Name>
CVD-0000077

> <SMILES>
Cc1nnc(NC(=O)Nc2cnccc2C)s1

$$$$

  CDD

  0  0  0  0  0  0            999 V2000
M  END
> <Molecule Name>
CVD-0000076

> <SMILES>
CN1CCN(CC1)C(=O)Nc1cnccc1C

$$$$

  CDD

  0  0  0  0  0  0            999 V2000
M  END
> <Molecule Name>
CVD-0000075

> <SMILES>
CN1CCN(CC1)C(=O)Nc1cccnc1

$$$$

  CDD

  0  0  0  0  0  0            999 V2000
M  END
> <Molecule Name>
CVD-0000074

> <SMILES>
BrCCNC(=O)Nc1cccnc1

$$$$

  CDD

  0  0  0  0  0  0            999 V2000
M  END
> <Molecule Name>
CVD-0000073

> <SMILES>
BrCCCC(=O)Nc1cccnc1

$$$$

  CDD

  0  0  0  0  0  0            999 V2000
M  END
> <Molecule Name>
CVD-0000072

> <SMILES>
Cc1ccncc1NC(=O)NCCBr

$$$$

  CDD

  0  0  0  0  0  0            999 V2000
M  END
> <Molecule Name>
CVD-0000071

> <SMILES>
Cc1ccncc1NC(=O)CCCBr

$$$$

  CDD

  0  0  0  0  0  0            999 V2000
M  END
> <Molecule Name>
CVD-0000070

> <SMILES>
Cc1ccncc1NC(=O)NCCCC(N)N

$$$$

  CDD

  0  0  0  0  0  0            999 V2000
M  END
> <Molecule Name>
CVD-0000069

> <SMILES>
Cc1ccncc1NC(=O)CCCCC(N)N

$$$$

  CDD

  0  0  0  0  0  0            999 V2000
M  END
> <Molecule Name>
CVD-0000068

> <SMILES>
Cc1ccncc1NC(=O)Nc1ccccc1

$$$$

  CDD

  0  0  0  0  0  0            999 V2000
M  END
> <Molecule Name>
CVD-0000067

> <SMILES>
COc1ccc2[nH]cc(CCNC(C)=O)c2c1

$$$$

  CDD

  0  0  0  0  0  0            999 V2000
M  END
> <Molecule Name>
CVD-0000066

> <SMILES>
NS(=O)(=O)c1cc2c(NCN(CCC(=O)Nc3cccnc3)S2(=O)=O)cc1Cl

$$$$

  CDD

  0  0  0  0  0  0            999 V2000
M  END
> <Molecule Name>
CVD-0000065

> <SMILES>
Cc1ccc(C)c(NC(=O)C=C)c1CC(=O)Nc1cccnc1Cl

$$$$

  CDD

  0  0  0  0  0  0            999 V2000
M  END
> <Molecule Name>
CVD-0000064

> <SMILES>
Cc1ncccc1NC(=O)Cc1cccc(Cl)c1NC(=O)C=C

$$$$

  CDD

  0  0  0  0  0  0            999 V2000
M  END
> <Molecule Name>
CVD-0000063

> <SMILES>
Cc1cccc(CC(=O)Nc2cccnc2Cl)c1NC(=O)C=C

$$$$

  CDD

  0  0  0  0  0  0            999 V2000
M  END
> <Molecule Name>
CVD-0000062

> <SMILES>
Cc1cccc(CC(=O)Nc2cccnc2C#C)c1

$$$$

  CDD

  0  0  0  0  0  0            999 V2000
M  END
> <Molecule Name>
CVD-0000061

> <SMILES>
Clc1cccc(CC(=O)Nc2cccnc2C#C)c1

$$$$

  CDD

  0  0  0  0  0  0            999 V2000
M  END
> <Molecule Name>
CVD-0000060

> <SMILES>
Clc1cccc(CC(=O)Nc2cccnc2C#N)c1

$$$$

  CDD

  0  0  0  0  0  0            999 V2000
M  END
> <Molecule Name>
CVD-0000059

> <SMILES>
Cc1cccc(CC(=O)Nc2cccnc2C#N)c1

$$$$

  CDD

  0  0  0  0  0  0            999 V2000
M  END
> <Molecule Name>
CVD-0000058

> <SMILES>
Cc1cccc(CC(=O)Nc2cccnc2C=C)c1

$$$$

  CDD

  0  0  0  0  0  0            999 V2000
M  END
> <Molecule Name>
CVD-0000057

> <SMILES>
Clc1cccc(CC(=O)Nc2cccnc2C=C)c1

$$$$

  CDD

  0  0  0  0  0  0            999 V2000
M  END
> <Molecule Name>
CVD-0000056

> <SMILES>
CN(C)c1ccnc(c1)N(Cc1cccc(n1)C#C)C(=O)Nc1c(C)nccc1CN1CCOCC1

$$$$

  CDD

  0  0  0  0  0  0            999 V2000
M  END
> <Molecule Name>
CVD-0000055

> <SMILES>
CN(C)c1ccnc(n1)N(Cc1nccc(n1)C#C)C(=O)Nc1c(C)nccc1CN1CCOCC1

$$$$

  CDD

  0  0  0  0  0  0            999 V2000
M  END
> <Molecule Name>
CVD-0000054

> <SMILES>
COc1ncnc(CN(C(=O)Nc2c(CCNC(=O)CN3CCOCC3)c(C)cnc2C=C)c2cc(C)ccn2)n1

$$$$

  CDD

  0  0  0  0  0  0            999 V2000
M  END
> <Molecule Name>
CVD-0000053

> <SMILES>
COc1ncnc(CN(C(=O)Nc2c(CCNC(=O)CN3CCCCC3)c(C)cnc2C=C)c2cc(C)ccn2)n1

$$$$

  CDD

  0  0  0  0  0  0            999 V2000
M  END
> <Molecule Name>
CVD-0000052

> <SMILES>
COc1ncnc(CN(C(=O)Nc2c(CCNC(C)=O)c(C)cnc2C=C)c2cc(C)ccn2)n1

$$$$

  CDD

  0  0  0  0  0  0            999 V2000
M  END
> <Molecule Name>
CVD-0000051

> <SMILES>
Cc1ccnc(c1)N(CC1CCOCC1)C(=O)Nc1c(CCNC(=O)CN2CCNCC2)c(C)cnc1C=C

$$$$

  CDD

  0  0  0  0  0  0            999 V2000
M  END
> <Molecule Name>
CVD-0000050

> <SMILES>
COc1nc(F)nc(CN(C(=O)Nc2c(CCNC(C)=O)c(C)cnc2C=C)c2cc(C)ccn2)n1

$$$$

  CDD

  0  0  0  0  0  0            999 V2000
M  END
> <Molecule Name>
CVD-0000049

> <SMILES>
COc1cc(cc(CS(=O)(=O)Nc2c(C)ccnc2F)n1)-c1cccs1

$$$$

  CDD

  0  0  0  0  0  0            999 V2000
M  END
> <Molecule Name>
CVD-0000048

> <SMILES>
Cc1ccncc1NS(=O)(=O)\C=C\NC(=O)c1cccs1

$$$$

  CDD

  0  0  0  0  0  0            999 V2000
M  END
> <Molecule Name>
CVD-0000047

> <SMILES>
Cc1ccnc(F)c1NS(=O)(=O)\C=C\NC(=O)C1CCCC1

$$$$

  CDD

  0  0  0  0  0  0            999 V2000
M  END
> <Molecule Name>
CVD-0000046

> <SMILES>
CC(C)C(=O)N\C=C\S(=O)(=O)Nc1c(C)ccnc1F

$$$$

  CDD

  0  0  0  0  0  0            999 V2000
M  END
> <Molecule Name>
CVD-0000045

> <SMILES>
COc1cnc(CS(=O)(=O)Nc2c(C)ccnc2F)cc1-c1cccs1

$$$$

  CDD

  0  0  0  0  0  0            999 V2000
M  END
> <Molecule Name>
CVD-0000044

> <SMILES>
Cc1ccnc(F)c1NS(=O)(=O)\C=C\NC(=O)c1cccs1

$$$$

  CDD

  0  0  0  0  0  0            999 V2000
M  END
> <Molecule Name>
CVD-0000043

> <SMILES>
O=S(=O)(\C=C\c1cccnc1)c1cccc(CC#N)c1

$$$$

  CDD

  0  0  0  0  0  0            999 V2000
M  END
> <Molecule Name>
CVD-0000042

> <SMILES>
Fc1ccccc1-c1cccc(c1)S(=O)(=O)\C=C\c1cccnc1

$$$$

  CDD

  0  0  0  0  0  0            999 V2000
M  END
> <Molecule Name>
CVD-0000041

> <SMILES>
Fc1ccc(c(F)c1)-c1cccc(c1)S(=O)(=O)\C=C\c1cccnc1

$$$$

  CDD

  0  0  0  0  0  0            999 V2000
M  END
> <Molecule Name>
CVD-0000040

> <SMILES>
Fc1cccc(F)c1-c1cccc(c1)S(=O)(=O)\C=C\c1cccnc1

$$$$

  CDD

  0  0  0  0  0  0            999 V2000
M  END
> <Molecule Name>
CVD-0000039

> <SMILES>
CC(C)c1cc(Cl)cc(c1)S(=O)(=O)\C=C\c1cccnc1

$$$$

  CDD

  0  0  0  0  0  0            999 V2000
M  END
> <Molecule Name>
CVD-0000038

> <SMILES>
COc1cc(Cl)cc(CS(=O)(=O)Nc2cccnc2)c1

$$$$

  CDD

  0  0  0  0  0  0            999 V2000
M  END
> <Molecule Name>
CVD-0000037

> <SMILES>
Oc1cc(Cl)cc(CS(=O)(=O)Nc2cccnc2)c1

$$$$

  CDD

  0  0  0  0  0  0            999 V2000
M  END
> <Molecule Name>
CVD-0000036

> <SMILES>
Oc1cc(Cl)cc(OC(=O)Nc2cccnc2)c1

$$$$

  CDD

  0  0  0  0  0  0            999 V2000
M  END
> <Molecule Name>
CVD-0000035

> <SMILES>
COc1ccc(cc1-c1ncccn1)S(=O)(=O)\C=C\c1cccnc1

$$$$

  CDD

  0  0  0  0  0  0            999 V2000
M  END
> <Molecule Name>
CVD-0000034

> <SMILES>
O=S(=O)(\C=C\c1cccnc1)c1cccc(c1)-c1ncccn1

$$$$

  CDD

  0  0  0  0  0  0            999 V2000
M  END
> <Molecule Name>
CVD-0000033

> <SMILES>
COc1cc(Cl)cc(OC(=O)Nc2cccnc2)c1

$$$$

  CDD

  0  0  0  0  0  0            999 V2000
M  END
> <Molecule Name>
CVD-0000032

> <SMILES>
CC(C)c1ccnc(n1)N(Cc1cccc(n1)C#C)C(=O)Nc1c(C)ccnc1C

$$$$

  CDD

  0  0  0  0  0  0            999 V2000
M  END
> <Molecule Name>
CVD-0000031

> <SMILES>
CC(C)c1ccnc(n1)N(Cc1cc(F)cc(n1)C#C)C(=O)Nc1cccnc1C

$$$$

  CDD

  0  0  0  0  0  0            999 V2000
M  END
> <Molecule Name>
CVD-0000030

> <SMILES>
CC(C)c1ccnc(n1)N(Cc1cccc(n1)C#C)C(=O)Nc1cccnc1C

$$$$

  CDD

  0  0  0  0  0  0            999 V2000
M  END
> <Molecule Name>
CVD-0000029

> <SMILES>
CC(C)c1ccnc(n1)N(Cc1nccc(n1)C#C)C(=O)Nc1c(C)nccc1CN1CCOCC1

$$$$

  CDD

  0  0  0  0  0  0            999 V2000
M  END
> <Molecule Name>
CVD-0000028

> <SMILES>
CC(C)c1ccnc(n1)N(Cc1cccc(n1)C#C)C(=O)Nc1c(C)nccc1CN1CCCCC1

$$$$

  CDD

  0  0  0  0  0  0            999 V2000
M  END
> <Molecule Name>
CVD-0000027

> <SMILES>
CC(C)c1ccnc(n1)N(Cc1cccc(n1)C#C)C(=O)Nc1c(C)nccc1CN1CCOCC1

$$$$

  CDD

  0  0  0  0  0  0            999 V2000
M  END
> <Molecule Name>
CVD-0000026

> <SMILES>
Cc1cc(F)cc(c1)N1CC(CN(C1=O)c1cnccc1C)NC(=O)C=C

$$$$

  CDD

  0  0  0  0  0  0            999 V2000
M  END
> <Molecule Name>
CVD-0000025

> <SMILES>
Cc1cc(Cl)cc(c1)N1CC(CN(C1=O)c1cnccc1C)NC(=O)C=C

$$$$

  CDD

  0  0  0  0  0  0            999 V2000
M  END
> <Molecule Name>
CVD-0000024

> <SMILES>
Cc1ccnc(c1)N(CCC1CN(C1)C(=O)C=C)C(=O)Nc1c(C)ncc(C)c1CCN1CCOCC1

$$$$

  CDD

  0  0  0  0  0  0            999 V2000
M  END
> <Molecule Name>
CVD-0000023

> <SMILES>
Cc1ccnc(c1)N(CN1CCOCC1)C(=O)Nc1c(CCNC(=O)CN2CCNCC2)c(C)cnc1C#C

$$$$

  CDD

  0  0  0  0  0  0            999 V2000
M  END
> <Molecule Name>
CVD-0000022

> <SMILES>
CN(C(=O)Nc1c(CCNC(=O)CN2CCNCC2)c(C)cnc1C#C)c1cc(C)ccn1

$$$$

  CDD

  0  0  0  0  0  0            999 V2000
M  END
> <Molecule Name>
CVD-0000021

> <SMILES>
Cc1ccnc(c1)N(CN1CCOCC1)C(=O)Nc1c(CCNC(=O)CN2CCNCC2)c(C)cnc1C=C

$$$$

  CDD

  0  0  0  0  0  0            999 V2000
M  END
> <Molecule Name>
CVD-0000020

> <SMILES>
CN(C(=O)Nc1c(CCNC(=O)CN2CCNCC2)c(C)cnc1C=C)c1cc(C)ccn1

$$$$

  CDD

  0  0  0  0  0  0            999 V2000
M  END
> <Molecule Name>
CVD-0000019

> <SMILES>
CC(C)(C)OC(=O)Nc1cccn(C(C2CC2)c2cc(cc3[nH]cc(C=O)c23)C(=O)C(=O)NCc2ccccc2)c1=O

$$$$

  CDD

  0  0  0  0  0  0            999 V2000
M  END
> <Molecule Name>
CVD-0000018

> <SMILES>
CS(=O)(=O)NCC1CC1(C(=O)Nc1cccnc1)c1cccc(Cl)c1

$$$$

  CDD

  0  0  0  0  0  0            999 V2000
M  END
> <Molecule Name>
CVD-0000017

> <SMILES>
CS(=O)(=O)NCCC(C(=O)Nc1cccnc1)c1cccc(Cl)c1

$$$$

  CDD

  0  0  0  0  0  0            999 V2000
M  END
> <Molecule Name>
CVD-0000016

> <SMILES>
CS(=O)(=O)NCCOC(C(=O)Nc1cccnc1)c1cccc(Cl)c1

$$$$

  CDD

  0  0  0  0  0  0            999 V2000
M  END
> <Molecule Name>
CVD-0000015

> <SMILES>
CNCC1CC1(C(=O)Nc1cccnc1)c1ccccc1

$$$$

  CDD

  0  0  0  0  0  0            999 V2000
M  END
> <Molecule Name>
CVD-0000014

> <SMILES>
CNCCC(C(=O)Nc1cccnc1)c1ccccc1

$$$$

  CDD

  0  0  0  0  0  0            999 V2000
M  END
> <Molecule Name>
CVD-0000013

> <SMILES>
CNCCOC(C(=O)Nc1cccnc1)c1ccccc1

$$$$

  CDD

  0  0  0  0  0  0            999 V2000
M  END
> <Molecule Name>
CVD-0000012

> <SMILES>
CS(=O)(=O)NCC1CC1(C(=O)Nc1cccnc1)c1ccccc1

$$$$

  CDD

  0  0  0  0  0  0            999 V2000
M  END
> <Molecule Name>
CVD-0000011

> <SMILES>
CS(=O)(=O)NCCC(C(=O)Nc1cccnc1)c1ccccc1

$$$$

  CDD

  0  0  0  0  0  0            999 V2000
M  END
> <Molecule Name>
CVD-0000010

> <SMILES>
CNCC1CC1(C(=O)Nc1cccnc1)c1cccc(Cl)c1

$$$$

  CDD

  0  0  0  0  0  0            999 V2000
M  END
> <Molecule Name>
CVD-0000009

> <SMILES>
CNCCC(C(=O)Nc1cccnc1)c1cccc(Cl)c1

$$$$

  CDD

  0  0  0  0  0  0            999 V2000
M  END
> <Molecule Name>
CVD-0000008

> <SMILES>
CNCCOC(C(=O)Nc1cccnc1)c1cccc(Cl)c1

$$$$

  CDD

  0  0  0  0  0  0            999 V2000
M  END
> <Molecule Name>
CVD-0000007

> <SMILES>
CS(=O)(=O)NCCOC(C(=O)Nc1cccnc1)c1ccccc1

$$$$

  CDD

  0  0  0  0  0  0            999 V2000
M  END
> <Molecule Name>
CVD-0000006

> <SMILES>
CC(=O)\C=C\C1(Cc2ccccc2)COC(Cn2cc3C(C(Cc3n2)NC(N)=N)c2nc(Cc3ccccc3)co2)=N1

$$$$

  CDD

  0  0  0  0  0  0            999 V2000
M  END
> <Molecule Name>
CVD-0000005

> <SMILES>
CC(=O)C=CC1(Cc2ccccc2)COC(Cn2cc3C(C(Cc3n2)NC(N)=N)c2nc(Cc3ccccc3)co2)=N1

$$$$

  CDD

  0  0  0  0  0  0            999 V2000
M  END
> <Molecule Name>
CVD-0000004

> <SMILES>
CCC(C)C(NC(=O)C(CCCNC(N)=N)NC(=O)C(Cc1ccccc1)NC(=O)CN)C(=O)NC(Cc1ccccc1)C(=O)NC(CO)C=O

$$$$

  CDD

  0  0  0  0  0  0            999 V2000
M  END
> <Molecule Name>
CVD-0000003

> <SMILES>
NCCCC(NC(=O)C(Cc1ccccc1)NC(=O)CN)C(=O)NCC(=O)NC(Cc1ccccc1)C(=O)NC(CO)C=O

$$$$

  CDD

  0  0  0  0  0  0            999 V2000
M  END
> <Molecule Name>
CVD-0000002

> <SMILES>
NCC(=O)NC(Cc1ccc(O)cc1)C(=O)NC(CCCNC(N)=N)C(=O)NCC(=O)NC(Cc1ccccc1)C(=O)NC(CO)C=O

$$$$

  CDD

  0  0  0  0  0  0            999 V2000
M  END
> <Molecule Name>
CVD-0000001

> <SMILES>
NCC(=O)NC(Cc1ccccc1)C(=O)NC(CCCNC(N)=N)C(=O)NCC(=O)NC(Cc1ccccc1)C(=O)NC(CO)C=O

$$$$
